*SPEF "IEEE 1481-1998"
*DESIGN "changes"
*DATE "Tue Dec 02 20:42:00 2014"
*VENDOR "TAU 2015 Contest"
*PROGRAM "Benchmark Parasitic Generator"
*VERSION "0.0"
*DESIGN_FLOW "NETLIST_TYPE_VERILOG"
*DIVIDER /
*DELIMITER :
*BUS_DELIMITER [ ]
*T_UNIT 1 PS
*C_UNIT 1 FF
*R_UNIT 1 KOHM
*L_UNIT 1 UH

*D_NET TAUNET_4 1.7439
*CONN
*I inst_1564:Q O
*I TAUGATE_4:A I
*CAP
1 inst_1564:Q 0.2611
2 TAUNET_4:1 0.4098
3 TAUNET_4:2 0.5009
4 TAUNET_4:3 0.2843
5 TAUGATE_4:A 0.2878
*RES
2 inst_1564:Q TAUNET_4:1 0.1659
3 TAUNET_4:1 TAUNET_4:2 0.2742
4 TAUNET_4:2 TAUNET_4:3 0.3494
5 TAUNET_4:3 TAUGATE_4:A 0.1485
*END

*D_NET net_8013 1.6938
*CONN
*I TAUGATE_4:Z O
*I inst_1564:D I
*I inst_8112:B1 I
*CAP
1 TAUGATE_4:Z 0.2110
2 net_8013:1 0.3070
3 net_8013:2 0.3583
4 net_8013:3 0.1395
5 net_8013:4 0.0646
6 net_8013:5 0.0794
7 inst_8112:B1 0.2161
8 net_8013:6 0.2440
9 net_8013:7 0.0332
10 inst_1564:D 0.0406
*RES
2 TAUGATE_4:Z net_8013:1 0.1614
3 net_8013:1 net_8013:2 0.3312
4 net_8013:2 net_8013:3 0.3755
5 net_8013:3 net_8013:4 0.4644
6 net_8013:4 net_8013:5 0.4559
7 net_8013:5 inst_8112:B1 0.4050
8 net_8013:2 net_8013:6 0.2732
9 net_8013:6 net_8013:7 0.0073
10 net_8013:7 inst_1564:D 0.1308
*END

*D_NET TAUNET_2 1.8161
*CONN
*I inst_5405:ZN O
*I TAUGATE_2:A I
*CAP
1 inst_5405:ZN 0.2909
2 TAUNET_2:1 0.0740
3 TAUNET_2:2 0.4871
4 TAUNET_2:3 0.4951
5 TAUNET_2:4 0.4125
6 TAUGATE_2:A 0.0565
*RES
2 inst_5405:ZN TAUNET_2:1 0.1285
3 TAUNET_2:1 TAUNET_2:2 0.0292
4 TAUNET_2:2 TAUNET_2:3 0.2926
5 TAUNET_2:3 TAUNET_2:4 0.4507
6 TAUNET_2:4 TAUGATE_2:A 0.3356
*END

*D_NET net_3546 4.2828
*CONN
*I TAUGATE_2:Z O
*I inst_114:B I
*I inst_2436:D I
*I inst_8589:C1 I
*CAP
1 TAUGATE_2:Z 0.3845
2 net_3546:1 0.3056
3 net_3546:2 0.3464
4 net_3546:3 0.0305
5 net_3546:4 0.2383
6 net_3546:5 0.4020
7 inst_8589:C1 0.2529
8 net_3546:6 0.2236
9 inst_2436:D 0.1922
10 net_3546:7 0.4680
11 net_3546:8 0.2976
12 net_3546:9 0.2331
13 net_3546:10 0.2927
14 net_3546:11 0.3943
15 inst_114:B 0.2211
*RES
2 TAUGATE_2:Z net_3546:1 0.2665
3 net_3546:1 net_3546:2 0.4354
4 net_3546:2 net_3546:3 0.1977
5 net_3546:3 net_3546:4 0.0788
6 net_3546:4 net_3546:5 0.3276
7 net_3546:5 inst_8589:C1 0.3833
8 net_3546:4 net_3546:6 0.2805
9 net_3546:6 inst_2436:D 0.1322
10 net_3546:3 net_3546:7 0.1955
11 net_3546:7 net_3546:8 0.1868
12 net_3546:8 net_3546:9 0.4889
13 net_3546:9 net_3546:10 0.0703
14 net_3546:10 net_3546:11 0.3298
15 net_3546:11 inst_114:B 0.4131
*END

*D_NET net_4705 1.4221
*CONN
*I TAUGATE_3:Z O
*I inst_109:A I
*CAP
1 TAUGATE_3:Z 0.2621
2 net_4705:1 0.1808
3 net_4705:2 0.0717
4 net_4705:3 0.3990
5 net_4705:4 0.4035
6 net_4705:5 0.0219
7 inst_109:A 0.0830
*RES
2 TAUGATE_3:Z net_4705:1 0.4539
3 net_4705:1 net_4705:2 0.1250
4 net_4705:2 net_4705:3 0.3196
5 net_4705:3 net_4705:4 0.4976
6 net_4705:4 net_4705:5 0.3591
7 net_4705:5 inst_109:A 0.2780
*END

*D_NET TAUNET_3 2.6031
*CONN
*I inst_110:ZN O
*I TAUGATE_3:A I
*CAP
1 inst_110:ZN 0.1593
2 TAUNET_3:1 0.3498
3 TAUNET_3:2 0.4055
4 TAUNET_3:3 0.4519
5 TAUNET_3:4 0.4658
6 TAUNET_3:5 0.3690
7 TAUGATE_3:A 0.4019
*RES
2 inst_110:ZN TAUNET_3:1 0.0632
3 TAUNET_3:1 TAUNET_3:2 0.2503
4 TAUNET_3:2 TAUNET_3:3 0.4700
5 TAUNET_3:3 TAUNET_3:4 0.3789
6 TAUNET_3:4 TAUNET_3:5 0.3545
7 TAUNET_3:5 TAUGATE_3:A 0.1033
*END

