*SPEF "IEEE 1481-1998"
*DESIGN "changes"
*DATE "Tue Dec 02 20:42:18 2014"
*VENDOR "TAU 2015 Contest"
*PROGRAM "Benchmark Parasitic Generator"
*VERSION "0.0"
*DESIGN_FLOW "NETLIST_TYPE_VERILOG"
*DIVIDER /
*DELIMITER :
*BUS_DELIMITER [ ]
*T_UNIT 1 PS
*C_UNIT 1 FF
*R_UNIT 1 KOHM
*L_UNIT 1 UH

*D_NET net_1691 1.7439
*CONN
*I inst_5271:ZN O
*I inst_3157:B1 I
*CAP
1 inst_5271:ZN 0.2611
2 net_1691:1 0.4098
3 net_1691:2 0.5009
4 net_1691:3 0.2843
5 inst_3157:B1 0.2878
*RES
2 inst_5271:ZN net_1691:1 0.1659
3 net_1691:1 net_1691:2 0.2742
4 net_1691:2 net_1691:3 0.3494
5 net_1691:3 inst_3157:B1 0.1485
*END

*D_NET net_4309 1.3760
*CONN
*I inst_3721:ZN O
*I inst_8824:A I
*CAP
1 inst_3721:ZN 0.2110
2 net_4309:1 0.3070
3 net_4309:2 0.3583
4 net_4309:3 0.1395
5 net_4309:4 0.0646
6 net_4309:5 0.0794
7 inst_8824:A 0.2161
*RES
2 inst_3721:ZN net_4309:1 0.1614
3 net_4309:1 net_4309:2 0.3312
4 net_4309:2 net_4309:3 0.3755
5 net_4309:3 net_4309:4 0.4644
6 net_4309:4 net_4309:5 0.4559
7 net_4309:5 inst_8824:A 0.4050
*END

*D_NET net_1050 0.4849
*CONN
*I inst_270:ZN O
*I inst_3246:A1 I
*CAP
1 inst_270:ZN 0.1670
2 net_1050:1 0.2440
3 net_1050:2 0.0332
4 inst_3246:A1 0.0406
*RES
2 inst_270:ZN net_1050:1 0.2732
3 net_1050:1 net_1050:2 0.0073
4 net_1050:2 inst_3246:A1 0.1308
*END

*D_NET TAUNET_4306 1.8161
*CONN
*I inst_8932:ZN O
*I TAUGATE_4306:A I
*CAP
1 inst_8932:ZN 0.2909
2 TAUNET_4306:1 0.0740
3 TAUNET_4306:2 0.4871
4 TAUNET_4306:3 0.4951
5 TAUNET_4306:4 0.4125
6 TAUGATE_4306:A 0.0565
*RES
2 inst_8932:ZN TAUNET_4306:1 0.1285
3 TAUNET_4306:1 TAUNET_4306:2 0.0292
4 TAUNET_4306:2 TAUNET_4306:3 0.2926
5 TAUNET_4306:3 TAUNET_4306:4 0.4507
6 TAUNET_4306:4 TAUGATE_4306:A 0.3356
*END

*D_NET net_4142 1.9602
*CONN
*I inst_7990:ZN O
*I inst_3729:A1 I
*CAP
1 inst_7990:ZN 0.3845
2 net_4142:1 0.3056
3 net_4142:2 0.3464
4 net_4142:3 0.0305
5 net_4142:4 0.2383
6 net_4142:5 0.4020
7 inst_3729:A1 0.2529
*RES
2 inst_7990:ZN net_4142:1 0.2665
3 net_4142:1 net_4142:2 0.4354
4 net_4142:2 net_4142:3 0.1977
5 net_4142:3 net_4142:4 0.0788
6 net_4142:4 net_4142:5 0.3276
7 net_4142:5 inst_3729:A1 0.3833
*END

