*SPEF "IEEE 1481-1998"
*DESIGN "changes"
*DATE "Tue Dec 02 20:41:59 2014"
*VENDOR "TAU 2015 Contest"
*PROGRAM "Benchmark Parasitic Generator"
*VERSION "0.0"
*DESIGN_FLOW "NETLIST_TYPE_VERILOG"
*DIVIDER /
*DELIMITER :
*BUS_DELIMITER [ ]
*T_UNIT 1 PS
*C_UNIT 1 FF
*R_UNIT 1 KOHM
*L_UNIT 1 UH

*D_NET net_7518 4.5250
*CONN
*I TAUGATE_1:Z O
*I inst_3589:A1 I
*I inst_3612:A2 I
*I inst_5701:A I
*CAP
1 TAUGATE_1:Z 0.2611
2 net_7518:1 0.4098
3 net_7518:2 0.5009
4 net_7518:3 0.2843
5 inst_3612:A2 0.2878
6 net_7518:4 0.4685
7 net_7518:5 0.3070
8 net_7518:6 0.3583
9 inst_3589:A1 0.1395
10 net_7518:7 0.4644
11 net_7518:8 0.4559
12 net_7518:9 0.4050
13 net_7518:10 0.0154
14 inst_5701:A 0.1670
*RES
2 TAUGATE_1:Z net_7518:1 0.1659
3 net_7518:1 net_7518:2 0.2742
4 net_7518:2 net_7518:3 0.3494
5 net_7518:3 inst_3612:A2 0.1485
6 net_7518:3 net_7518:4 0.0646
7 net_7518:4 net_7518:5 0.0794
8 net_7518:5 net_7518:6 0.2161
9 net_7518:6 inst_3589:A1 0.1614
10 net_7518:4 net_7518:7 0.1555
11 net_7518:7 net_7518:8 0.2440
12 net_7518:8 net_7518:9 0.0332
13 net_7518:9 net_7518:10 0.0406
14 net_7518:10 inst_5701:A 0.2732
*END

*D_NET TAUNET_1 0.8663
*CONN
*I inst_7144:QN O
*I TAUGATE_1:A I
*CAP
1 inst_7144:QN 0.1308
2 TAUNET_1:1 0.2909
3 TAUNET_1:2 0.3706
4 TAUGATE_1:A 0.0740
*RES
2 inst_7144:QN TAUNET_1:1 0.4871
3 TAUNET_1:1 TAUNET_1:2 0.4951
4 TAUNET_1:2 TAUGATE_1:A 0.4125
*END

