*SPEF "IEEE 1481-1998"
*DESIGN "changes"
*DATE "Tue Dec 02 20:42:00 2014"
*VENDOR "TAU 2015 Contest"
*PROGRAM "Benchmark Parasitic Generator"
*VERSION "0.0"
*DESIGN_FLOW "NETLIST_TYPE_VERILOG"
*DIVIDER /
*DELIMITER :
*BUS_DELIMITER [ ]
*T_UNIT 1 PS
*C_UNIT 1 FF
*R_UNIT 1 KOHM
*L_UNIT 1 UH

*D_NET net_8272 3.0173
*CONN
*I TAUGATE_50:Z O
*I inst_2149:D I
*I inst_2157:SI I
*CAP
1 TAUGATE_50:Z 0.2611
2 net_8272:1 0.4098
3 net_8272:2 0.5009
4 net_8272:3 0.2843
5 inst_2149:D 0.2878
6 net_8272:4 0.4685
7 net_8272:5 0.3070
8 net_8272:6 0.3583
9 inst_2157:SI 0.1395
*RES
2 TAUGATE_50:Z net_8272:1 0.1659
3 net_8272:1 net_8272:2 0.2742
4 net_8272:2 net_8272:3 0.3494
5 net_8272:3 inst_2149:D 0.1485
6 net_8272:3 net_8272:4 0.0646
7 net_8272:4 net_8272:5 0.0794
8 net_8272:5 net_8272:6 0.2161
9 net_8272:6 inst_2157:SI 0.1614
*END

*D_NET TAUNET_13 1.8183
*CONN
*I inst_1480:Q O
*I TAUGATE_13:A I
*CAP
1 inst_1480:Q 0.3755
2 TAUNET_13:1 0.4559
3 TAUNET_13:2 0.4050
4 TAUNET_13:3 0.0154
5 TAUNET_13:4 0.1670
6 TAUNET_13:5 0.1555
7 TAUGATE_13:A 0.2440
*RES
2 inst_1480:Q TAUNET_13:1 0.0332
3 TAUNET_13:1 TAUNET_13:2 0.0406
4 TAUNET_13:2 TAUNET_13:3 0.2732
5 TAUNET_13:3 TAUNET_13:4 0.0073
6 TAUNET_13:4 TAUNET_13:5 0.1308
7 TAUNET_13:5 TAUGATE_13:A 0.1374
*END

*D_NET TAUNET_12 1.3529
*CONN
*I inst_1341:Q O
*I TAUGATE_12:A I
*CAP
1 inst_1341:Q 0.3706
2 TAUNET_12:1 0.4871
3 TAUGATE_12:A 0.4951
*RES
2 inst_1341:Q TAUNET_12:1 0.4125
3 TAUNET_12:1 TAUGATE_12:A 0.0565
*END

*D_NET net_8854 3.1585
*CONN
*I TAUGATE_16:Z O
*I inst_8318:B1 I
*I inst_526:D I
*CAP
1 TAUGATE_16:Z 0.0292
2 net_8854:1 0.4507
3 net_8854:2 0.3356
4 net_8854:3 0.3995
5 inst_8318:B1 0.3845
6 net_8854:4 0.2529
7 net_8854:5 0.2665
8 net_8854:6 0.4354
9 net_8854:7 0.1977
10 net_8854:8 0.0788
11 inst_526:D 0.3276
*RES
2 TAUGATE_16:Z net_8854:1 0.4708
3 net_8854:1 net_8854:2 0.3056
4 net_8854:2 net_8854:3 0.3464
5 net_8854:3 inst_8318:B1 0.0305
6 net_8854:2 net_8854:4 0.3833
7 net_8854:4 net_8854:5 0.3292
8 net_8854:5 net_8854:6 0.0716
9 net_8854:6 net_8854:7 0.2236
10 net_8854:7 net_8854:8 0.1922
11 net_8854:8 inst_526:D 0.2805
*END

*D_NET net_8792 3.2280
*CONN
*I TAUGATE_22:Z O
*I inst_8197:B1 I
*I inst_752:D I
*CAP
1 TAUGATE_22:Z 0.1905
2 net_8792:1 0.4680
3 net_8792:2 0.2976
4 net_8792:3 0.2331
5 net_8792:4 0.2927
6 net_8792:5 0.3943
7 inst_8197:B1 0.2211
8 net_8792:6 0.4792
9 net_8792:7 0.1808
10 net_8792:8 0.0717
11 inst_752:D 0.3990
*RES
2 TAUGATE_22:Z net_8792:1 0.1955
3 net_8792:1 net_8792:2 0.1868
4 net_8792:2 net_8792:3 0.4889
5 net_8792:3 net_8792:4 0.0703
6 net_8792:4 net_8792:5 0.3298
7 net_8792:5 inst_8197:B1 0.4131
8 net_8792:4 net_8792:6 0.4035
9 net_8792:6 net_8792:7 0.0219
10 net_8792:7 net_8792:8 0.0830
11 net_8792:8 inst_752:D 0.4539
*END

*D_NET net_6204 5.6526
*CONN
*I TAUGATE_17:Z O
*I inst_227:A I
*I inst_43:A I
*I inst_8653:C1 I
*CAP
1 TAUGATE_17:Z 0.3196
2 net_6204:1 0.3591
3 net_6204:2 0.2780
4 net_6204:3 0.2022
5 net_6204:4 0.1593
6 net_6204:5 0.4382
7 inst_227:A 0.3498
8 net_6204:6 0.3789
9 net_6204:7 0.3545
10 net_6204:8 0.1033
11 net_6204:9 0.4316
12 net_6204:10 0.1782
13 inst_43:A 0.4734
14 net_6204:11 0.2434
15 net_6204:12 0.3726
16 net_6204:13 0.2980
17 net_6204:14 0.2454
18 inst_8653:C1 0.4670
*RES
2 TAUGATE_17:Z net_6204:1 0.4055
3 net_6204:1 net_6204:2 0.4519
4 net_6204:2 net_6204:3 0.4658
5 net_6204:3 net_6204:4 0.3690
6 net_6204:4 net_6204:5 0.4019
7 net_6204:5 inst_227:A 0.0632
8 net_6204:3 net_6204:6 0.0376
9 net_6204:6 net_6204:7 0.0972
10 net_6204:7 net_6204:8 0.3594
11 net_6204:8 net_6204:9 0.0525
12 net_6204:9 net_6204:10 0.3248
13 net_6204:10 inst_43:A 0.2597
14 net_6204:3 net_6204:11 0.1921
15 net_6204:11 net_6204:12 0.1376
16 net_6204:12 net_6204:13 0.4443
17 net_6204:13 net_6204:14 0.1288
18 net_6204:14 inst_8653:C1 0.3022
*END

*D_NET net_7792 2.8424
*CONN
*I TAUGATE_41:Z O
*I inst_2000:SI I
*I inst_8014:B1 I
*CAP
1 TAUGATE_41:Z 0.0668
2 net_7792:1 0.4131
3 net_7792:2 0.4004
4 net_7792:3 0.4814
5 net_7792:4 0.1341
6 inst_2000:SI 0.3915
7 net_7792:5 0.3147
8 net_7792:6 0.2761
9 inst_8014:B1 0.3643
*RES
2 TAUGATE_41:Z net_7792:1 0.0282
3 net_7792:1 net_7792:2 0.3089
4 net_7792:2 net_7792:3 0.0253
5 net_7792:3 net_7792:4 0.3105
6 net_7792:4 inst_2000:SI 0.1881
7 net_7792:2 net_7792:5 0.2288
8 net_7792:5 net_7792:6 0.0666
9 net_7792:6 inst_8014:B1 0.3854
*END

*D_NET TAUNET_35 1.0519
*CONN
*I inst_3639:ZN O
*I TAUGATE_35:A I
*CAP
1 inst_3639:ZN 0.3774
2 TAUNET_35:1 0.1525
3 TAUNET_35:2 0.0518
4 TAUNET_35:3 0.2548
5 TAUGATE_35:A 0.2154
*RES
2 inst_3639:ZN TAUNET_35:1 0.4921
3 TAUNET_35:1 TAUNET_35:2 0.1648
4 TAUNET_35:2 TAUNET_35:3 0.1855
5 TAUNET_35:3 TAUGATE_35:A 0.0112
*END

*D_NET net_4753 1.1059
*CONN
*I TAUGATE_46:Z O
*I inst_6247:A I
*CAP
1 TAUGATE_46:Z 0.1128
2 net_4753:1 0.0917
3 net_4753:2 0.4230
4 net_4753:3 0.1494
5 inst_6247:A 0.3290
*RES
2 TAUGATE_46:Z net_4753:1 0.1620
3 net_4753:1 net_4753:2 0.0029
4 net_4753:2 net_4753:3 0.2883
5 net_4753:3 inst_6247:A 0.1903
*END

*D_NET TAUNET_46 0.6766
*CONN
*I inst_7811:ZN O
*I TAUGATE_46:A I
*CAP
1 inst_7811:ZN 0.3484
2 TAUNET_46:1 0.1392
3 TAUGATE_46:A 0.1891
*RES
2 inst_7811:ZN TAUNET_46:1 0.0464
3 TAUNET_46:1 TAUGATE_46:A 0.0364
*END

*D_NET net_620 0.6214
*CONN
*I TAUGATE_27:Z O
*I inst_223:A I
*CAP
1 TAUGATE_27:Z 0.4104
2 net_620:1 0.0510
3 inst_223:A 0.1600
*RES
2 TAUGATE_27:Z net_620:1 0.1748
3 net_620:1 inst_223:A 0.4787
*END

*D_NET net_1876 5.4363
*CONN
*I TAUGATE_47:Z O
*I inst_5260:A I
*I inst_3292:A2 I
*I inst_3504:A2 I
*I inst_3298:A1 I
*CAP
1 TAUGATE_47:Z 0.4606
2 net_1876:1 0.4657
3 net_1876:2 0.3595
4 net_1876:3 0.2471
5 net_1876:4 0.0832
6 inst_5260:A 0.0580
7 net_1876:5 0.4950
8 net_1876:6 0.0413
9 net_1876:7 0.4651
10 net_1876:8 0.4065
11 inst_3292:A2 0.3164
12 net_1876:9 0.2195
13 net_1876:10 0.1533
14 net_1876:11 0.4091
15 inst_3504:A2 0.2613
16 net_1876:12 0.1210
17 net_1876:13 0.1733
18 net_1876:14 0.1014
19 net_1876:15 0.0283
20 net_1876:16 0.2763
21 inst_3298:A1 0.2945
*RES
2 TAUGATE_47:Z net_1876:1 0.3736
3 net_1876:1 net_1876:2 0.0395
4 net_1876:2 net_1876:3 0.3644
5 net_1876:3 net_1876:4 0.0829
6 net_1876:4 inst_5260:A 0.1977
7 net_1876:4 net_1876:5 0.3513
8 net_1876:5 net_1876:6 0.1165
9 net_1876:6 net_1876:7 0.0986
10 net_1876:7 net_1876:8 0.2243
11 net_1876:8 inst_3292:A2 0.1286
12 net_1876:8 net_1876:9 0.3587
13 net_1876:9 net_1876:10 0.1869
14 net_1876:10 net_1876:11 0.4974
15 net_1876:11 inst_3504:A2 0.3047
16 net_1876:3 net_1876:12 0.3177
17 net_1876:12 net_1876:13 0.2101
18 net_1876:13 net_1876:14 0.3390
19 net_1876:14 net_1876:15 0.2046
20 net_1876:15 net_1876:16 0.3404
21 net_1876:16 inst_3298:A1 0.1317
*END

*D_NET TAUNET_24 1.2103
*CONN
*I inst_6597:ZN O
*I TAUGATE_24:A I
*CAP
1 inst_6597:ZN 0.0856
2 TAUNET_24:1 0.2821
3 TAUNET_24:2 0.3900
4 TAUNET_24:3 0.0557
5 TAUNET_24:4 0.1253
6 TAUGATE_24:A 0.2716
*RES
2 inst_6597:ZN TAUNET_24:1 0.3735
3 TAUNET_24:1 TAUNET_24:2 0.1079
4 TAUNET_24:2 TAUNET_24:3 0.3323
5 TAUNET_24:3 TAUNET_24:4 0.2907
6 TAUNET_24:4 TAUGATE_24:A 0.0362
*END

*D_NET TAUNET_16 1.0331
*CONN
*I inst_526:Q O
*I TAUGATE_16:A I
*CAP
1 inst_526:Q 0.4101
2 TAUNET_16:1 0.2135
3 TAUNET_16:2 0.0419
4 TAUNET_16:3 0.2773
5 TAUGATE_16:A 0.0903
*RES
2 inst_526:Q TAUNET_16:1 0.0485
3 TAUNET_16:1 TAUNET_16:2 0.4602
4 TAUNET_16:2 TAUNET_16:3 0.4262
5 TAUNET_16:3 TAUGATE_16:A 0.2009
*END

*D_NET TAUNET_31 1.7519
*CONN
*I inst_6896:Q O
*I TAUGATE_31:A I
*CAP
1 inst_6896:Q 0.3090
2 TAUNET_31:1 0.4228
3 TAUNET_31:2 0.2443
4 TAUNET_31:3 0.2458
5 TAUNET_31:4 0.3734
6 TAUGATE_31:A 0.1567
*RES
2 inst_6896:Q TAUNET_31:1 0.1247
3 TAUNET_31:1 TAUNET_31:2 0.2439
4 TAUNET_31:2 TAUNET_31:3 0.2588
5 TAUNET_31:3 TAUNET_31:4 0.4474
6 TAUNET_31:4 TAUGATE_31:A 0.3528
*END

*D_NET TAUNET_25 1.1906
*CONN
*I inst_4891:ZN O
*I TAUGATE_25:A I
*CAP
1 inst_4891:ZN 0.4436
2 TAUNET_25:1 0.3275
3 TAUNET_25:2 0.0169
4 TAUGATE_25:A 0.4026
*RES
2 inst_4891:ZN TAUNET_25:1 0.4684
3 TAUNET_25:1 TAUNET_25:2 0.2490
4 TAUNET_25:2 TAUGATE_25:A 0.0579
*END

*D_NET net_1360 2.1415
*CONN
*I TAUGATE_53:Z O
*I inst_178:A I
*CAP
1 TAUGATE_53:Z 0.2861
2 net_1360:1 0.3875
3 net_1360:2 0.4796
4 net_1360:3 0.3740
5 net_1360:4 0.1554
6 net_1360:5 0.0209
7 inst_178:A 0.4380
*RES
2 TAUGATE_53:Z net_1360:1 0.4130
3 net_1360:1 net_1360:2 0.4990
4 net_1360:2 net_1360:3 0.2134
5 net_1360:3 net_1360:4 0.1115
6 net_1360:4 net_1360:5 0.4947
7 net_1360:5 inst_178:A 0.3666
*END

*D_NET TAUNET_27 1.7795
*CONN
*I inst_4900:ZN O
*I TAUGATE_27:A I
*CAP
1 inst_4900:ZN 0.4464
2 TAUNET_27:1 0.2969
3 TAUNET_27:2 0.3091
4 TAUNET_27:3 0.5006
5 TAUGATE_27:A 0.2264
*RES
2 inst_4900:ZN TAUNET_27:1 0.3973
3 TAUNET_27:1 TAUNET_27:2 0.2044
4 TAUNET_27:2 TAUNET_27:3 0.1531
5 TAUNET_27:3 TAUGATE_27:A 0.3886
*END

*D_NET net_4602 1.3806
*CONN
*I TAUGATE_34:Z O
*I inst_6770:D I
*CAP
1 TAUGATE_34:Z 0.2468
2 net_4602:1 0.3652
3 net_4602:2 0.1857
4 net_4602:3 0.0562
5 net_4602:4 0.0882
6 inst_6770:D 0.4386
*RES
2 TAUGATE_34:Z net_4602:1 0.2715
3 net_4602:1 net_4602:2 0.0199
4 net_4602:2 net_4602:3 0.4145
5 net_4602:3 net_4602:4 0.1459
6 net_4602:4 inst_6770:D 0.1130
*END

*D_NET TAUNET_28 0.5758
*CONN
*I inst_1072:Q O
*I TAUGATE_28:A I
*CAP
1 inst_1072:Q 0.1939
2 TAUNET_28:1 0.0212
3 TAUNET_28:2 0.1417
4 TAUGATE_28:A 0.2190
*RES
2 inst_1072:Q TAUNET_28:1 0.4826
3 TAUNET_28:1 TAUNET_28:2 0.1138
4 TAUNET_28:2 TAUGATE_28:A 0.4033
*END

*D_NET TAUNET_57 0.6715
*CONN
*I inst_6355:ZN O
*I TAUGATE_57:A I
*CAP
1 inst_6355:ZN 0.2540
2 TAUNET_57:1 0.2388
3 TAUGATE_57:A 0.1787
*RES
2 inst_6355:ZN TAUNET_57:1 0.3603
3 TAUNET_57:1 TAUGATE_57:A 0.0603
*END

*D_NET net_6693 2.0004
*CONN
*I TAUGATE_15:Z O
*I inst_8541:A1 I
*I inst_961:D I
*CAP
1 TAUGATE_15:Z 0.3102
2 net_6693:1 0.2473
3 net_6693:2 0.0055
4 inst_8541:A1 0.4935
5 net_6693:3 0.4583
6 net_6693:4 0.3985
7 net_6693:5 0.0145
8 inst_961:D 0.0725
*RES
2 TAUGATE_15:Z net_6693:1 0.2412
3 net_6693:1 net_6693:2 0.3995
4 net_6693:2 inst_8541:A1 0.4441
5 net_6693:1 net_6693:3 0.4492
6 net_6693:3 net_6693:4 0.3124
7 net_6693:4 net_6693:5 0.3685
8 net_6693:5 inst_961:D 0.4317
*END

*D_NET TAUNET_37 1.5959
*CONN
*I inst_5594:ZN O
*I TAUGATE_37:A I
*CAP
1 inst_5594:ZN 0.2826
2 TAUNET_37:1 0.0965
3 TAUNET_37:2 0.2555
4 TAUNET_37:3 0.1304
5 TAUNET_37:4 0.3675
6 TAUGATE_37:A 0.4634
*RES
2 inst_5594:ZN TAUNET_37:1 0.2869
3 TAUNET_37:1 TAUNET_37:2 0.1646
4 TAUNET_37:2 TAUNET_37:3 0.1182
5 TAUNET_37:3 TAUNET_37:4 0.0327
6 TAUNET_37:4 TAUGATE_37:A 0.0608
*END

*D_NET TAUNET_32 1.0579
*CONN
*I inst_8676:ZN O
*I TAUGATE_32:A I
*CAP
1 inst_8676:ZN 0.4648
2 TAUNET_32:1 0.1146
3 TAUNET_32:2 0.3081
4 TAUNET_32:3 0.1439
5 TAUGATE_32:A 0.0264
*RES
2 inst_8676:ZN TAUNET_32:1 0.2502
3 TAUNET_32:1 TAUNET_32:2 0.2506
4 TAUNET_32:2 TAUNET_32:3 0.4486
5 TAUNET_32:3 TAUGATE_32:A 0.0641
*END

*D_NET TAUNET_38 0.3299
*CONN
*I inst_6886:QN O
*I TAUGATE_38:A I
*CAP
1 inst_6886:QN 0.0079
2 TAUNET_38:1 0.2219
3 TAUGATE_38:A 0.1001
*RES
2 inst_6886:QN TAUNET_38:1 0.2747
3 TAUNET_38:1 TAUGATE_38:A 0.1704
*END

*D_NET net_8892 0.1666
*CONN
*I TAUGATE_38:Z O
*I inst_5838:A I
*CAP
1 TAUGATE_38:Z 0.0121
2 net_8892:1 0.0267
3 inst_5838:A 0.1278
*RES
2 TAUGATE_38:Z net_8892:1 0.1079
3 net_8892:1 inst_5838:A 0.3621
*END

*D_NET TAUNET_40 2.0149
*CONN
*I inst_8109:ZN O
*I TAUGATE_40:A I
*CAP
1 inst_8109:ZN 0.3490
2 TAUNET_40:1 0.3195
3 TAUNET_40:2 0.4748
4 TAUNET_40:3 0.2505
5 TAUNET_40:4 0.2036
6 TAUNET_40:5 0.3990
7 TAUGATE_40:A 0.0185
*RES
2 inst_8109:ZN TAUNET_40:1 0.3777
3 TAUNET_40:1 TAUNET_40:2 0.2437
4 TAUNET_40:2 TAUNET_40:3 0.3641
5 TAUNET_40:3 TAUNET_40:4 0.1411
6 TAUNET_40:4 TAUNET_40:5 0.2452
7 TAUNET_40:5 TAUGATE_40:A 0.2723
*END

*D_NET TAUNET_20 0.3445
*CONN
*I inst_8431:ZN O
*I TAUGATE_20:A I
*CAP
1 inst_8431:ZN 0.2449
2 TAUNET_20:1 0.0917
3 TAUGATE_20:A 0.0078
*RES
2 inst_8431:ZN TAUNET_20:1 0.0227
3 TAUNET_20:1 TAUGATE_20:A 0.0264
*END

*D_NET net_4038 0.9773
*CONN
*I TAUGATE_40:Z O
*I inst_3746:A2 I
*CAP
1 TAUGATE_40:Z 0.1906
2 net_4038:1 0.0937
3 net_4038:2 0.2944
4 inst_3746:A2 0.3987
*RES
2 TAUGATE_40:Z net_4038:1 0.0209
3 net_4038:1 net_4038:2 0.1182
4 net_4038:2 inst_3746:A2 0.1067
*END

*D_NET TAUNET_14 2.0282
*CONN
*I inst_6605:ZN O
*I TAUGATE_14:A I
*CAP
1 inst_6605:ZN 0.3672
2 TAUNET_14:1 0.1157
3 TAUNET_14:2 0.1901
4 TAUNET_14:3 0.2138
5 TAUNET_14:4 0.5008
6 TAUNET_14:5 0.2979
7 TAUGATE_14:A 0.3428
*RES
2 inst_6605:ZN TAUNET_14:1 0.2325
3 TAUNET_14:1 TAUNET_14:2 0.2733
4 TAUNET_14:2 TAUNET_14:3 0.1266
5 TAUNET_14:3 TAUNET_14:4 0.3814
6 TAUNET_14:4 TAUNET_14:5 0.1363
7 TAUNET_14:5 TAUGATE_14:A 0.3277
*END

*D_NET net_5818 1.7680
*CONN
*I TAUGATE_30:Z O
*I inst_2998:A I
*CAP
1 TAUGATE_30:Z 0.4503
2 net_5818:1 0.1603
3 net_5818:2 0.4423
4 net_5818:3 0.1159
5 net_5818:4 0.4527
6 inst_2998:A 0.1465
*RES
2 TAUGATE_30:Z net_5818:1 0.1463
3 net_5818:1 net_5818:2 0.4621
4 net_5818:2 net_5818:3 0.4065
5 net_5818:3 net_5818:4 0.0227
6 net_5818:4 inst_2998:A 0.2236
*END

*D_NET net_5147 1.0395
*CONN
*I TAUGATE_39:Z O
*I inst_4108:A1 I
*CAP
1 TAUGATE_39:Z 0.0715
2 net_5147:1 0.1861
3 net_5147:2 0.4367
4 inst_4108:A1 0.3452
*RES
2 TAUGATE_39:Z net_5147:1 0.0313
3 net_5147:1 net_5147:2 0.1217
4 net_5147:2 inst_4108:A1 0.0111
*END

*D_NET TAUNET_49 1.2561
*CONN
*I inst_2285:Q O
*I TAUGATE_49:A I
*CAP
1 inst_2285:Q 0.0613
2 TAUNET_49:1 0.4407
3 TAUNET_49:2 0.4978
4 TAUGATE_49:A 0.2563
*RES
2 inst_2285:Q TAUNET_49:1 0.2595
3 TAUNET_49:1 TAUNET_49:2 0.2603
4 TAUNET_49:2 TAUGATE_49:A 0.2874
*END

*D_NET net_3527 1.9663
*CONN
*I TAUGATE_44:Z O
*I inst_2827:A2 I
*I inst_2828:A2 I
*I inst_5139:A I
*CAP
1 TAUGATE_44:Z 0.2768
2 net_3527:1 0.2053
3 net_3527:2 0.2140
4 inst_2828:A2 0.3306
5 net_3527:3 0.4103
6 net_3527:4 0.0845
7 inst_2827:A2 0.1888
8 net_3527:5 0.2069
9 inst_5139:A 0.0491
*RES
2 TAUGATE_44:Z net_3527:1 0.1569
3 net_3527:1 net_3527:2 0.2580
4 net_3527:2 inst_2828:A2 0.2138
5 net_3527:1 net_3527:3 0.1436
6 net_3527:3 net_3527:4 0.1762
7 net_3527:4 inst_2827:A2 0.4748
8 net_3527:1 net_3527:5 0.4137
9 net_3527:5 inst_5139:A 0.3046
*END

*D_NET x3156 5.3334
*CONN
*I TAUGATE_37:Z O
*P x3156 O
*I inst_6698:A I
*I inst_8696:C1 I
*I inst_2407:SI I
*CAP
1 TAUGATE_37:Z 0.2640
2 x3156:1 0.4110
3 x3156:2 0.0191
4 inst_8696:C1 0.3538
5 x3156:3 0.4025
6 x3156:4 0.5010
7 x3156:5 0.3538
8 inst_6698:A 0.4649
9 x3156:6 0.0616
10 x3156:7 0.4298
11 x3156:8 0.2857
12 x3156:9 0.2634
13 x3156 0.0470
14 x3156:10 0.3095
15 x3156:11 0.4895
16 x3156:12 0.4033
17 inst_2407:SI 0.2734
*RES
2 TAUGATE_37:Z x3156:1 0.4300
3 x3156:1 x3156:2 0.3629
4 x3156:2 inst_8696:C1 0.0787
5 x3156:1 x3156:3 0.0482
6 x3156:3 x3156:4 0.1062
7 x3156:4 x3156:5 0.2963
8 x3156:5 inst_6698:A 0.4911
9 x3156:3 x3156:6 0.0745
10 x3156:6 x3156:7 0.1738
11 x3156:7 x3156:8 0.4336
12 x3156:8 x3156:9 0.4556
13 x3156:9 x3156 0.1284
14 x3156:3 x3156:10 0.3461
15 x3156:10 x3156:11 0.3729
16 x3156:11 x3156:12 0.0418
17 x3156:12 inst_2407:SI 0.3671
*END

*D_NET TAUNET_50 1.1766
*CONN
*I inst_2149:Q O
*I TAUGATE_50:A I
*CAP
1 inst_2149:Q 0.1458
2 TAUNET_50:1 0.0683
3 TAUNET_50:2 0.2135
4 TAUNET_50:3 0.4484
5 TAUNET_50:4 0.1379
6 TAUNET_50:5 0.1139
7 TAUGATE_50:A 0.0489
*RES
2 inst_2149:Q TAUNET_50:1 0.0861
3 TAUNET_50:1 TAUNET_50:2 0.1477
4 TAUNET_50:2 TAUNET_50:3 0.4806
5 TAUNET_50:3 TAUNET_50:4 0.3473
6 TAUNET_50:4 TAUNET_50:5 0.1114
7 TAUNET_50:5 TAUGATE_50:A 0.0198
*END

*D_NET net_3345 1.3546
*CONN
*I TAUGATE_21:Z O
*I inst_7095:D I
*CAP
1 TAUGATE_21:Z 0.1100
2 net_3345:1 0.3290
3 net_3345:2 0.1592
4 net_3345:3 0.4236
5 inst_7095:D 0.3328
*RES
2 TAUGATE_21:Z net_3345:1 0.1906
3 net_3345:1 net_3345:2 0.5003
4 net_3345:2 net_3345:3 0.4347
5 net_3345:3 inst_7095:D 0.3044
*END

*D_NET TAUNET_23 1.5228
*CONN
*I inst_1034:Q O
*I TAUGATE_23:A I
*CAP
1 inst_1034:Q 0.0096
2 TAUNET_23:1 0.2377
3 TAUNET_23:2 0.2571
4 TAUNET_23:3 0.3610
5 TAUNET_23:4 0.0042
6 TAUNET_23:5 0.2690
7 TAUGATE_23:A 0.3841
*RES
2 inst_1034:Q TAUNET_23:1 0.3400
3 TAUNET_23:1 TAUNET_23:2 0.2352
4 TAUNET_23:2 TAUNET_23:3 0.3112
5 TAUNET_23:3 TAUNET_23:4 0.1345
6 TAUNET_23:4 TAUNET_23:5 0.4134
7 TAUNET_23:5 TAUGATE_23:A 0.0741
*END

*D_NET net_1971 0.9047
*CONN
*I TAUGATE_59:Z O
*I inst_7263:D I
*CAP
1 TAUGATE_59:Z 0.4891
2 net_1971:1 0.2122
3 inst_7263:D 0.2034
*RES
2 TAUGATE_59:Z net_1971:1 0.1253
3 net_1971:1 inst_7263:D 0.2112
*END

*D_NET TAUNET_39 0.7145
*CONN
*I inst_4310:ZN O
*I TAUGATE_39:A I
*CAP
1 inst_4310:ZN 0.1106
2 TAUNET_39:1 0.2644
3 TAUGATE_39:A 0.3395
*RES
2 inst_4310:ZN TAUNET_39:1 0.4160
3 TAUNET_39:1 TAUGATE_39:A 0.1311
*END

*D_NET net_5025 0.5652
*CONN
*I TAUGATE_35:Z O
*I inst_8757:A I
*CAP
1 TAUGATE_35:Z 0.0535
2 net_5025:1 0.2939
3 inst_8757:A 0.2177
*RES
2 TAUGATE_35:Z net_5025:1 0.0520
3 net_5025:1 inst_8757:A 0.1787
*END

*D_NET TAUNET_51 1.2588
*CONN
*P x13126 I
*I TAUGATE_51:A I
*CAP
1 x13126 0.2308
2 TAUNET_51:1 0.4154
3 TAUNET_51:2 0.4205
4 TAUGATE_51:A 0.1921
*RES
2 x13126 TAUNET_51:1 0.3303
3 TAUNET_51:1 TAUNET_51:2 0.0500
4 TAUNET_51:2 TAUGATE_51:A 0.3450
*END

*D_NET TAUNET_19 1.3816
*CONN
*I inst_1125:Q O
*I TAUGATE_19:A I
*CAP
1 inst_1125:Q 0.2397
2 TAUNET_19:1 0.0450
3 TAUNET_19:2 0.3586
4 TAUNET_19:3 0.1804
5 TAUNET_19:4 0.2132
6 TAUGATE_19:A 0.3448
*RES
2 inst_1125:Q TAUNET_19:1 0.2539
3 TAUNET_19:1 TAUNET_19:2 0.0169
4 TAUNET_19:2 TAUNET_19:3 0.2910
5 TAUNET_19:3 TAUNET_19:4 0.3418
6 TAUNET_19:4 TAUGATE_19:A 0.0277
*END

*D_NET TAUNET_34 0.7138
*CONN
*I inst_3663:ZN O
*I TAUGATE_34:A I
*CAP
1 inst_3663:ZN 0.0700
2 TAUNET_34:1 0.4916
3 TAUNET_34:2 0.0258
4 TAUNET_34:3 0.0722
5 TAUNET_34:4 0.0268
6 TAUGATE_34:A 0.0274
*RES
2 inst_3663:ZN TAUNET_34:1 0.0955
3 TAUNET_34:1 TAUNET_34:2 0.0758
4 TAUNET_34:2 TAUNET_34:3 0.0730
5 TAUNET_34:3 TAUNET_34:4 0.2996
6 TAUNET_34:4 TAUGATE_34:A 0.1500
*END

*D_NET TAUNET_54 1.1459
*CONN
*I inst_8909:ZN O
*I TAUGATE_54:A I
*CAP
1 inst_8909:ZN 0.0605
2 TAUNET_54:1 0.4347
3 TAUNET_54:2 0.2976
4 TAUGATE_54:A 0.3531
*RES
2 inst_8909:ZN TAUNET_54:1 0.0316
3 TAUNET_54:1 TAUNET_54:2 0.1823
4 TAUNET_54:2 TAUGATE_54:A 0.0755
*END

*D_NET net_3510 1.1637
*CONN
*I TAUGATE_20:Z O
*I inst_3794:A3 I
*CAP
1 TAUGATE_20:Z 0.3515
2 net_3510:1 0.4269
3 net_3510:2 0.0493
4 net_3510:3 0.0341
5 inst_3794:A3 0.3020
*RES
2 TAUGATE_20:Z net_3510:1 0.3389
3 net_3510:1 net_3510:2 0.4000
4 net_3510:2 net_3510:3 0.0188
5 net_3510:3 inst_3794:A3 0.4709
*END

*D_NET net_2331 0.8262
*CONN
*I TAUGATE_29:Z O
*I inst_4037:A2 I
*CAP
1 TAUGATE_29:Z 0.0122
2 net_2331:1 0.0936
3 net_2331:2 0.3051
4 net_2331:3 0.1197
5 inst_4037:A2 0.2956
*RES
2 TAUGATE_29:Z net_2331:1 0.2210
3 net_2331:1 net_2331:2 0.0970
4 net_2331:2 net_2331:3 0.2798
5 net_2331:3 inst_4037:A2 0.3150
*END

*D_NET TAUNET_44 1.2664
*CONN
*I inst_4553:ZN O
*I TAUGATE_44:A I
*CAP
1 inst_4553:ZN 0.2108
2 TAUNET_44:1 0.0161
3 TAUNET_44:2 0.2047
4 TAUNET_44:3 0.3729
5 TAUNET_44:4 0.0610
6 TAUGATE_44:A 0.4010
*RES
2 inst_4553:ZN TAUNET_44:1 0.2910
3 TAUNET_44:1 TAUNET_44:2 0.3768
4 TAUNET_44:2 TAUNET_44:3 0.3083
5 TAUNET_44:3 TAUNET_44:4 0.1250
6 TAUNET_44:4 TAUGATE_44:A 0.3526
*END

*D_NET net_6487 2.0663
*CONN
*I TAUGATE_28:Z O
*I inst_1072:SI I
*I inst_8420:A1 I
*CAP
1 TAUGATE_28:Z 0.3144
2 net_6487:1 0.0820
3 net_6487:2 0.2174
4 net_6487:3 0.3638
5 net_6487:4 0.4097
6 inst_8420:A1 0.2418
7 net_6487:5 0.1278
8 inst_1072:SI 0.3093
*RES
2 TAUGATE_28:Z net_6487:1 0.4080
3 net_6487:1 net_6487:2 0.3118
4 net_6487:2 net_6487:3 0.4981
5 net_6487:3 net_6487:4 0.3134
6 net_6487:4 inst_8420:A1 0.4059
7 net_6487:1 net_6487:5 0.3342
8 net_6487:5 inst_1072:SI 0.2150
*END

*D_NET net_705 0.5049
*CONN
*I TAUGATE_25:Z O
*I inst_96:A I
*CAP
1 TAUGATE_25:Z 0.1830
2 net_705:1 0.0712
3 net_705:2 0.0044
4 net_705:3 0.1986
5 inst_96:A 0.0476
*RES
2 TAUGATE_25:Z net_705:1 0.0521
3 net_705:1 net_705:2 0.0546
4 net_705:2 net_705:3 0.0043
5 net_705:3 inst_96:A 0.2737
*END

*D_NET net_2083 1.2711
*CONN
*I TAUGATE_33:Z O
*I inst_3288:A1 I
*CAP
1 TAUGATE_33:Z 0.2677
2 net_2083:1 0.1466
3 net_2083:2 0.2784
4 net_2083:3 0.2008
5 inst_3288:A1 0.3776
*RES
2 TAUGATE_33:Z net_2083:1 0.2937
3 net_2083:1 net_2083:2 0.0093
4 net_2083:2 net_2083:3 0.2822
5 net_2083:3 inst_3288:A1 0.4311
*END

*D_NET TAUNET_43 1.6512
*CONN
*I inst_1623:Q O
*I TAUGATE_43:A I
*CAP
1 inst_1623:Q 0.1138
2 TAUNET_43:1 0.3567
3 TAUNET_43:2 0.3242
4 TAUNET_43:3 0.2336
5 TAUNET_43:4 0.3863
6 TAUGATE_43:A 0.2365
*RES
2 inst_1623:Q TAUNET_43:1 0.1037
3 TAUNET_43:1 TAUNET_43:2 0.3572
4 TAUNET_43:2 TAUNET_43:3 0.2211
5 TAUNET_43:3 TAUNET_43:4 0.2185
6 TAUNET_43:4 TAUGATE_43:A 0.2266
*END

*D_NET TAUNET_56 1.9002
*CONN
*I inst_7879:ZN O
*I TAUGATE_56:A I
*CAP
1 inst_7879:ZN 0.1297
2 TAUNET_56:1 0.2417
3 TAUNET_56:2 0.2444
4 TAUNET_56:3 0.4262
5 TAUNET_56:4 0.3737
6 TAUNET_56:5 0.3015
7 TAUGATE_56:A 0.1830
*RES
2 inst_7879:ZN TAUNET_56:1 0.3035
3 TAUNET_56:1 TAUNET_56:2 0.4053
4 TAUNET_56:2 TAUNET_56:3 0.0863
5 TAUNET_56:3 TAUNET_56:4 0.2362
6 TAUNET_56:4 TAUNET_56:5 0.1365
7 TAUNET_56:5 TAUGATE_56:A 0.0277
*END

*D_NET x13126 0.8486
*CONN
*I TAUGATE_51:Z O
*I inst_7340:D I
*CAP
1 TAUGATE_51:Z 0.2912
2 x13126:1 0.3711
3 x13126:2 0.0512
4 inst_7340:D 0.1351
*RES
2 TAUGATE_51:Z x13126:1 0.0984
3 x13126:1 x13126:2 0.0368
4 x13126:2 inst_7340:D 0.4376
*END

*D_NET TAUNET_55 1.3959
*CONN
*I inst_4115:ZN O
*I TAUGATE_55:A I
*CAP
1 inst_4115:ZN 0.1283
2 TAUNET_55:1 0.3234
3 TAUNET_55:2 0.4610
4 TAUGATE_55:A 0.4832
*RES
2 inst_4115:ZN TAUNET_55:1 0.2776
3 TAUNET_55:1 TAUNET_55:2 0.3781
4 TAUNET_55:2 TAUGATE_55:A 0.3766
*END

*D_NET TAUNET_11 1.4006
*CONN
*I inst_3911:ZN O
*I TAUGATE_11:A I
*CAP
1 inst_3911:ZN 0.3877
2 TAUNET_11:1 0.3738
3 TAUNET_11:2 0.4556
4 TAUGATE_11:A 0.1835
*RES
2 inst_3911:ZN TAUNET_11:1 0.0020
3 TAUNET_11:1 TAUNET_11:2 0.2614
4 TAUNET_11:2 TAUGATE_11:A 0.3010
*END

*D_NET TAUNET_33 1.0435
*CONN
*I inst_3231:ZN O
*I TAUGATE_33:A I
*CAP
1 inst_3231:ZN 0.4372
2 TAUNET_33:1 0.1153
3 TAUNET_33:2 0.3810
4 TAUGATE_33:A 0.1100
*RES
2 inst_3231:ZN TAUNET_33:1 0.1662
3 TAUNET_33:1 TAUNET_33:2 0.3178
4 TAUNET_33:2 TAUGATE_33:A 0.2541
*END

*D_NET TAUNET_22 1.5558
*CONN
*I inst_752:Q O
*I TAUGATE_22:A I
*CAP
1 inst_752:Q 0.4625
2 TAUNET_22:1 0.0981
3 TAUNET_22:2 0.3461
4 TAUNET_22:3 0.2382
5 TAUGATE_22:A 0.4109
*RES
2 inst_752:Q TAUNET_22:1 0.0945
3 TAUNET_22:1 TAUNET_22:2 0.2326
4 TAUNET_22:2 TAUNET_22:3 0.0121
5 TAUNET_22:3 TAUGATE_22:A 0.2674
*END

*D_NET TAUNET_41 1.0180
*CONN
*I inst_2000:Q O
*I TAUGATE_41:A I
*CAP
1 inst_2000:Q 0.0414
2 TAUNET_41:1 0.1970
3 TAUNET_41:2 0.0138
4 TAUNET_41:3 0.4527
5 TAUGATE_41:A 0.3131
*RES
2 inst_2000:Q TAUNET_41:1 0.4392
3 TAUNET_41:1 TAUNET_41:2 0.4048
4 TAUNET_41:2 TAUNET_41:3 0.0368
5 TAUNET_41:3 TAUGATE_41:A 0.3283
*END

*D_NET net_5413 1.5830
*CONN
*I TAUGATE_55:Z O
*I inst_6204:A I
*CAP
1 TAUGATE_55:Z 0.4199
2 net_5413:1 0.3306
3 net_5413:2 0.3042
4 net_5413:3 0.1317
5 net_5413:4 0.1481
6 inst_6204:A 0.2485
*RES
2 TAUGATE_55:Z net_5413:1 0.2201
3 net_5413:1 net_5413:2 0.2966
4 net_5413:2 net_5413:3 0.3013
5 net_5413:3 net_5413:4 0.0758
6 net_5413:4 inst_6204:A 0.0262
*END

*D_NET net_6122 3.1948
*CONN
*I TAUGATE_10:Z O
*I inst_6591:A I
*I inst_4717:A2 I
*I inst_6588:A I
*CAP
1 TAUGATE_10:Z 0.0656
2 net_6122:1 0.0047
3 net_6122:2 0.1418
4 inst_6588:A 0.2138
5 net_6122:3 0.0320
6 net_6122:4 0.2786
7 net_6122:5 0.3378
8 net_6122:6 0.4364
9 inst_4717:A2 0.2454
10 net_6122:7 0.3004
11 net_6122:8 0.3665
12 net_6122:9 0.1341
13 net_6122:10 0.0859
14 net_6122:11 0.1706
15 inst_6591:A 0.3812
*RES
2 TAUGATE_10:Z net_6122:1 0.3805
3 net_6122:1 net_6122:2 0.2523
4 net_6122:2 inst_6588:A 0.0497
5 net_6122:1 net_6122:3 0.4527
6 net_6122:3 net_6122:4 0.2663
7 net_6122:4 net_6122:5 0.3641
8 net_6122:5 net_6122:6 0.1740
9 net_6122:6 inst_4717:A2 0.2701
10 net_6122:5 net_6122:7 0.0751
11 net_6122:7 net_6122:8 0.1227
12 net_6122:8 net_6122:9 0.0294
13 net_6122:9 net_6122:10 0.0059
14 net_6122:10 net_6122:11 0.3552
15 net_6122:11 inst_6591:A 0.3839
*END

*D_NET TAUNET_30 2.0504
*CONN
*I inst_8606:ZN O
*I TAUGATE_30:A I
*CAP
1 inst_8606:ZN 0.4010
2 TAUNET_30:1 0.4559
3 TAUNET_30:2 0.3575
4 TAUNET_30:3 0.1715
5 TAUNET_30:4 0.3050
6 TAUGATE_30:A 0.3594
*RES
2 inst_8606:ZN TAUNET_30:1 0.4902
3 TAUNET_30:1 TAUNET_30:2 0.4716
4 TAUNET_30:2 TAUNET_30:3 0.2112
5 TAUNET_30:3 TAUNET_30:4 0.1762
6 TAUNET_30:4 TAUGATE_30:A 0.1166
*END

*D_NET TAUNET_58 1.7552
*CONN
*I inst_2975:ZN O
*I TAUGATE_58:A I
*CAP
1 inst_2975:ZN 0.2177
2 TAUNET_58:1 0.3318
3 TAUNET_58:2 0.3308
4 TAUNET_58:3 0.4080
5 TAUGATE_58:A 0.4669
*RES
2 inst_2975:ZN TAUNET_58:1 0.1932
3 TAUNET_58:1 TAUNET_58:2 0.0675
4 TAUNET_58:2 TAUNET_58:3 0.0053
5 TAUNET_58:3 TAUGATE_58:A 0.1459
*END

*D_NET net_5613 2.0694
*CONN
*I TAUGATE_26:Z O
*I inst_6753:D I
*CAP
1 TAUGATE_26:Z 0.4598
2 net_5613:1 0.2033
3 net_5613:2 0.3263
4 net_5613:3 0.4574
5 net_5613:4 0.4683
6 inst_6753:D 0.1543
*RES
2 TAUGATE_26:Z net_5613:1 0.4873
3 net_5613:1 net_5613:2 0.1669
4 net_5613:2 net_5613:3 0.4800
5 net_5613:3 net_5613:4 0.4518
6 net_5613:4 inst_6753:D 0.0570
*END

*D_NET TAUNET_52 1.8484
*CONN
*I inst_8553:ZN O
*I TAUGATE_52:A I
*CAP
1 inst_8553:ZN 0.0572
2 TAUNET_52:1 0.1013
3 TAUNET_52:2 0.2457
4 TAUNET_52:3 0.4210
5 TAUNET_52:4 0.2594
6 TAUNET_52:5 0.3565
7 TAUGATE_52:A 0.4074
*RES
2 inst_8553:ZN TAUNET_52:1 0.4309
3 TAUNET_52:1 TAUNET_52:2 0.4474
4 TAUNET_52:2 TAUNET_52:3 0.2931
5 TAUNET_52:3 TAUNET_52:4 0.2848
6 TAUNET_52:4 TAUNET_52:5 0.2246
7 TAUNET_52:5 TAUGATE_52:A 0.3320
*END

*D_NET TAUNET_59 1.4186
*CONN
*I inst_3158:ZN O
*I TAUGATE_59:A I
*CAP
1 inst_3158:ZN 0.3663
2 TAUNET_59:1 0.1368
3 TAUNET_59:2 0.4493
4 TAUGATE_59:A 0.4663
*RES
2 inst_3158:ZN TAUNET_59:1 0.2866
3 TAUNET_59:1 TAUNET_59:2 0.1873
4 TAUNET_59:2 TAUGATE_59:A 0.1599
*END

*D_NET TAUNET_48 1.7430
*CONN
*I inst_3731:ZN O
*I TAUGATE_48:A I
*CAP
1 inst_3731:ZN 0.4697
2 TAUNET_48:1 0.0401
3 TAUNET_48:2 0.2861
4 TAUNET_48:3 0.1883
5 TAUNET_48:4 0.3075
6 TAUNET_48:5 0.0604
7 TAUGATE_48:A 0.3908
*RES
2 inst_3731:ZN TAUNET_48:1 0.2921
3 TAUNET_48:1 TAUNET_48:2 0.4162
4 TAUNET_48:2 TAUNET_48:3 0.1285
5 TAUNET_48:3 TAUNET_48:4 0.0491
6 TAUNET_48:4 TAUNET_48:5 0.3511
7 TAUNET_48:5 TAUGATE_48:A 0.2111
*END

*D_NET net_6163 0.4933
*CONN
*I TAUGATE_14:Z O
*I inst_3619:A1 I
*CAP
1 TAUGATE_14:Z 0.1515
2 net_6163:1 0.2707
3 inst_3619:A1 0.0711
*RES
2 TAUGATE_14:Z net_6163:1 0.2365
3 net_6163:1 inst_3619:A1 0.0021
*END

*D_NET net_5627 2.3290
*CONN
*I TAUGATE_11:Z O
*I inst_6742:D I
*CAP
1 TAUGATE_11:Z 0.3529
2 net_5627:1 0.3648
3 net_5627:2 0.4404
4 net_5627:3 0.3187
5 net_5627:4 0.4272
6 net_5627:5 0.0224
7 inst_6742:D 0.4026
*RES
2 TAUGATE_11:Z net_5627:1 0.2784
3 net_5627:1 net_5627:2 0.1803
4 net_5627:2 net_5627:3 0.0882
5 net_5627:3 net_5627:4 0.2924
6 net_5627:4 net_5627:5 0.4780
7 net_5627:5 inst_6742:D 0.3510
*END

*D_NET net_4556 1.0443
*CONN
*I TAUGATE_56:Z O
*I inst_9023:A1 I
*CAP
1 TAUGATE_56:Z 0.2614
2 net_4556:1 0.2582
3 net_4556:2 0.4484
4 inst_9023:A1 0.0762
*RES
2 TAUGATE_56:Z net_4556:1 0.1986
3 net_4556:1 net_4556:2 0.3922
4 net_4556:2 inst_9023:A1 0.3950
*END

*D_NET net_5788 3.1915
*CONN
*I TAUGATE_54:Z O
*I inst_8893:A I
*I inst_8896:A I
*CAP
1 TAUGATE_54:Z 0.4255
2 net_5788:1 0.2972
3 net_5788:2 0.3936
4 net_5788:3 0.4880
5 net_5788:4 0.4169
6 net_5788:5 0.3167
7 inst_8896:A 0.3376
8 net_5788:6 0.1251
9 net_5788:7 0.0048
10 net_5788:8 0.3126
11 net_5788:9 0.0195
12 inst_8893:A 0.0541
*RES
2 TAUGATE_54:Z net_5788:1 0.1073
3 net_5788:1 net_5788:2 0.3579
4 net_5788:2 net_5788:3 0.1300
5 net_5788:3 net_5788:4 0.3795
6 net_5788:4 net_5788:5 0.2362
7 net_5788:5 inst_8896:A 0.1908
8 net_5788:2 net_5788:6 0.3700
9 net_5788:6 net_5788:7 0.3260
10 net_5788:7 net_5788:8 0.3466
11 net_5788:8 net_5788:9 0.4948
12 net_5788:9 inst_8893:A 0.4038
*END

*D_NET TAUNET_42 1.1917
*CONN
*I inst_5387:ZN O
*I TAUGATE_42:A I
*CAP
1 inst_5387:ZN 0.0063
2 TAUNET_42:1 0.0915
3 TAUNET_42:2 0.4619
4 TAUNET_42:3 0.1065
5 TAUNET_42:4 0.1990
6 TAUNET_42:5 0.2576
7 TAUGATE_42:A 0.0690
*RES
2 inst_5387:ZN TAUNET_42:1 0.2231
3 TAUNET_42:1 TAUNET_42:2 0.2934
4 TAUNET_42:2 TAUNET_42:3 0.0661
5 TAUNET_42:3 TAUNET_42:4 0.0281
6 TAUNET_42:4 TAUNET_42:5 0.1011
7 TAUNET_42:5 TAUGATE_42:A 0.2539
*END

*D_NET net_7895 2.3634
*CONN
*I TAUGATE_12:Z O
*I inst_8018:A1 I
*I inst_1341:D I
*CAP
1 TAUGATE_12:Z 0.1980
2 net_7895:1 0.1282
3 net_7895:2 0.2766
4 net_7895:3 0.4045
5 net_7895:4 0.4267
6 inst_8018:A1 0.4596
7 net_7895:5 0.2110
8 inst_1341:D 0.2588
*RES
2 TAUGATE_12:Z net_7895:1 0.3295
3 net_7895:1 net_7895:2 0.4724
4 net_7895:2 net_7895:3 0.4631
5 net_7895:3 net_7895:4 0.0407
6 net_7895:4 inst_8018:A1 0.4130
7 net_7895:4 net_7895:5 0.0339
8 net_7895:5 inst_1341:D 0.0519
*END

*D_NET net_234 1.6674
*CONN
*I TAUGATE_49:Z O
*I inst_7869:B1 I
*I inst_2285:D I
*CAP
1 TAUGATE_49:Z 0.0374
2 net_234:1 0.2584
3 net_234:2 0.0346
4 net_234:3 0.4333
5 inst_2285:D 0.0645
6 net_234:4 0.2746
7 net_234:5 0.4228
8 inst_7869:B1 0.1417
*RES
2 TAUGATE_49:Z net_234:1 0.3416
3 net_234:1 net_234:2 0.4099
4 net_234:2 net_234:3 0.1540
5 net_234:3 inst_2285:D 0.0325
6 net_234:1 net_234:4 0.3754
7 net_234:4 net_234:5 0.2016
8 net_234:5 inst_7869:B1 0.0068
*END

*D_NET net_7480 4.4833
*CONN
*I TAUGATE_31:Z O
*I inst_9141:A1 I
*I inst_4873:A1 I
*I inst_4941:A I
*I inst_5765:A I
*CAP
1 TAUGATE_31:Z 0.4220
2 net_7480:1 0.0580
3 net_7480:2 0.3810
4 net_7480:3 0.2195
5 net_7480:4 0.2042
6 net_7480:5 0.2030
7 inst_4873:A1 0.2656
8 net_7480:6 0.2654
9 inst_9141:A1 0.2245
10 net_7480:7 0.4235
11 inst_4941:A 0.1903
12 net_7480:8 0.2497
13 net_7480:9 0.2766
14 net_7480:10 0.3086
15 net_7480:11 0.2353
16 net_7480:12 0.4838
17 inst_5765:A 0.0722
*RES
2 TAUGATE_31:Z net_7480:1 0.4413
3 net_7480:1 net_7480:2 0.1336
4 net_7480:2 net_7480:3 0.4042
5 net_7480:3 net_7480:4 0.0451
6 net_7480:4 net_7480:5 0.2391
7 net_7480:5 inst_4873:A1 0.0321
8 net_7480:5 net_7480:6 0.4797
9 net_7480:6 inst_9141:A1 0.0551
10 net_7480:3 net_7480:7 0.2143
11 net_7480:7 inst_4941:A 0.0701
12 net_7480:5 net_7480:8 0.3539
13 net_7480:8 net_7480:9 0.3446
14 net_7480:9 net_7480:10 0.0192
15 net_7480:10 net_7480:11 0.1341
16 net_7480:11 net_7480:12 0.4054
17 net_7480:12 inst_5765:A 0.3681
*END

*D_NET TAUNET_18 0.7963
*CONN
*I inst_8794:ZN O
*I TAUGATE_18:A I
*CAP
1 inst_8794:ZN 0.1561
2 TAUNET_18:1 0.0224
3 TAUNET_18:2 0.3933