*SPEF "IEEE 1481-1998"
*DESIGN "changes"
*DATE "Tue Dec 02 20:42:00 2014"
*VENDOR "TAU 2015 Contest"
*PROGRAM "Benchmark Parasitic Generator"
*VERSION "0.0"
*DESIGN_FLOW "NETLIST_TYPE_VERILOG"
*DIVIDER /
*DELIMITER :
*BUS_DELIMITER [ ]
*T_UNIT 1 PS
*C_UNIT 1 FF
*R_UNIT 1 KOHM
*L_UNIT 1 UH

*D_NET TAUNET_9 1.7439
*CONN
*I inst_4253:ZN O
*I TAUGATE_9:A I
*CAP
1 inst_4253:ZN 0.2611
2 TAUNET_9:1 0.4098
3 TAUNET_9:2 0.5009
4 TAUNET_9:3 0.2843
5 TAUGATE_9:A 0.2878
*RES
2 inst_4253:ZN TAUNET_9:1 0.1659
3 TAUNET_9:1 TAUNET_9:2 0.2742
4 TAUNET_9:2 TAUNET_9:3 0.3494
5 TAUNET_9:3 TAUGATE_9:A 0.1485
*END

*D_NET net_5207 1.3760
*CONN
*I TAUGATE_9:Z O
*I inst_4154:A1 I
*CAP
1 TAUGATE_9:Z 0.2110
2 net_5207:1 0.3070
3 net_5207:2 0.3583
4 net_5207:3 0.1395
5 net_5207:4 0.0646
6 net_5207:5 0.0794
7 inst_4154:A1 0.2161
*RES
2 TAUGATE_9:Z net_5207:1 0.1614
3 net_5207:1 net_5207:2 0.3312
4 net_5207:2 net_5207:3 0.3755
5 net_5207:3 net_5207:4 0.4644
6 net_5207:4 net_5207:5 0.4559
7 net_5207:5 inst_4154:A1 0.4050
*END

*D_NET TAUNET_5 0.4849
*CONN
*I inst_429:Q O
*I TAUGATE_5:A I
*CAP
1 inst_429:Q 0.1670
2 TAUNET_5:1 0.2440
3 TAUNET_5:2 0.0332
4 TAUGATE_5:A 0.0406
*RES
2 inst_429:Q TAUNET_5:1 0.2732
3 TAUNET_5:1 TAUNET_5:2 0.0073
4 TAUNET_5:2 TAUGATE_5:A 0.1308
*END

*D_NET TAUNET_8 1.8161
*CONN
*I inst_6041:ZN O
*I TAUGATE_8:A I
*CAP
1 inst_6041:ZN 0.2909
2 TAUNET_8:1 0.0740
3 TAUNET_8:2 0.4871
4 TAUNET_8:3 0.4951
5 TAUNET_8:4 0.4125
6 TAUGATE_8:A 0.0565
*RES
2 inst_6041:ZN TAUNET_8:1 0.1285
3 TAUNET_8:1 TAUNET_8:2 0.0292
4 TAUNET_8:2 TAUNET_8:3 0.2926
5 TAUNET_8:3 TAUNET_8:4 0.4507
6 TAUNET_8:4 TAUGATE_8:A 0.3356
*END

*D_NET net_4725 2.3760
*CONN
*I TAUGATE_6:Z O
*I inst_4468:A2 I
*I inst_4469:A2 I
*CAP
1 TAUGATE_6:Z 0.3845
2 net_4725:1 0.3056
3 net_4725:2 0.3464
4 net_4725:3 0.0305
5 net_4725:4 0.2383
6 net_4725:5 0.4020
7 inst_4469:A2 0.2529
8 net_4725:6 0.2236
9 inst_4468:A2 0.1922
*RES
2 TAUGATE_6:Z net_4725:1 0.2665
3 net_4725:1 net_4725:2 0.4354
4 net_4725:2 net_4725:3 0.1977
5 net_4725:3 net_4725:4 0.0788
6 net_4725:4 net_4725:5 0.3276
7 net_4725:5 inst_4469:A2 0.3833
8 net_4725:4 net_4725:6 0.2805
9 net_4725:6 inst_4468:A2 0.1322
*END

*D_NET net_749 3.1959
*CONN
*I TAUGATE_8:Z O
*I inst_2765:SI I
*I inst_6423:A I
*CAP
1 TAUGATE_8:Z 0.4017
2 net_749:1 0.2976
3 net_749:2 0.2331
4 net_749:3 0.2927
5 net_749:4 0.3943
6 net_749:5 0.2211
7 inst_2765:SI 0.1955
8 net_749:6 0.1808
9 net_749:7 0.0717
10 net_749:8 0.3990
11 net_749:9 0.4035
12 net_749:10 0.0219
13 inst_6423:A 0.0830
*RES
2 TAUGATE_8:Z net_749:1 0.1868
3 net_749:1 net_749:2 0.4889
4 net_749:2 net_749:3 0.0703
5 net_749:3 net_749:4 0.3298
6 net_749:4 net_749:5 0.4131
7 net_749:5 inst_2765:SI 0.3310
8 net_749:3 net_749:6 0.4539
9 net_749:6 net_749:7 0.1250
10 net_749:7 net_749:8 0.3196
11 net_749:8 net_749:9 0.4976
12 net_749:9 net_749:10 0.3591
13 net_749:10 inst_6423:A 0.2780
*END

*D_NET TAUNET_6 2.6031
*CONN
*I inst_3190:ZN O
*I TAUGATE_6:A I
*CAP
1 inst_3190:ZN 0.1593
2 TAUNET_6:1 0.3498
3 TAUNET_6:2 0.4055
4 TAUNET_6:3 0.4519
5 TAUNET_6:4 0.4658
6 TAUNET_6:5 0.3690
7 TAUGATE_6:A 0.4019
*RES
2 inst_3190:ZN TAUNET_6:1 0.0632
3 TAUNET_6:1 TAUNET_6:2 0.2503
4 TAUNET_6:2 TAUNET_6:3 0.4700
5 TAUNET_6:3 TAUNET_6:4 0.3789
6 TAUNET_6:4 TAUNET_6:5 0.3545
7 TAUNET_6:5 TAUGATE_6:A 0.1033
*END

*D_NET net_3339 1.3094
*CONN
*I TAUGATE_7:Z O
*I inst_7097:D I
*CAP
1 TAUGATE_7:Z 0.1782
2 net_3339:1 0.0376
3 net_3339:2 0.0972
4 net_3339:3 0.3594
5 net_3339:4 0.0525
6 net_3339:5 0.3248
7 inst_7097:D 0.2597
*RES
2 TAUGATE_7:Z net_3339:1 0.1267
3 net_3339:1 net_3339:2 0.3840
4 net_3339:2 net_3339:3 0.2434
5 net_3339:3 net_3339:4 0.3726
6 net_3339:4 net_3339:5 0.2980
7 net_3339:5 inst_7097:D 0.2454
*END

*D_NET TAUNET_7 1.0674
*CONN
*I inst_6324:ZN O
*I TAUGATE_7:A I
*CAP
1 inst_6324:ZN 0.1921
2 TAUNET_7:1 0.4443
3 TAUNET_7:2 0.1288
4 TAUGATE_7:A 0.3022
*RES
2 inst_6324:ZN TAUNET_7:1 0.1405
3 TAUNET_7:1 TAUNET_7:2 0.0668
4 TAUNET_7:2 TAUGATE_7:A 0.3699
*END

*D_NET net_8757 2.3423
*CONN
*I TAUGATE_5:Z O
*I inst_429:D I
*I inst_8210:B1 I
*CAP
1 TAUGATE_5:Z 0.4004
2 net_8757:1 0.1341
3 net_8757:2 0.3915
4 net_8757:3 0.0282
5 net_8757:4 0.3089
6 net_8757:5 0.0253
7 inst_8210:B1 0.3105
8 net_8757:6 0.3854
9 inst_429:D 0.3580
*RES
2 TAUGATE_5:Z net_8757:1 0.1881
3 net_8757:1 net_8757:2 0.2034
4 net_8757:2 net_8757:3 0.1592
5 net_8757:3 net_8757:4 0.3147
6 net_8757:4 net_8757:5 0.2761
7 net_8757:5 inst_8210:B1 0.3643
8 net_8757:3 net_8757:6 0.3774
9 net_8757:6 inst_429:D 0.2731
*END

