*SPEF "IEEE 1481-1998"
*DESIGN "changes"
*DATE "Tue Dec 02 20:42:18 2014"
*VENDOR "TAU 2015 Contest"
*PROGRAM "Benchmark Parasitic Generator"
*VERSION "0.0"
*DESIGN_FLOW "NETLIST_TYPE_VERILOG"
*DIVIDER /
*DELIMITER :
*BUS_DELIMITER [ ]
*T_UNIT 1 PS
*C_UNIT 1 FF
*R_UNIT 1 KOHM
*L_UNIT 1 UH

*D_NET net_3710 1.7439
*CONN
*I inst_8337:ZN O
*I inst_3779:A2 I
*CAP
1 inst_8337:ZN 0.2611
2 net_3710:1 0.4098
3 net_3710:2 0.5009
4 net_3710:3 0.2843
5 inst_3779:A2 0.2878
*RES
2 inst_8337:ZN net_3710:1 0.1659
3 net_3710:1 net_3710:2 0.2742
4 net_3710:2 net_3710:3 0.3494
5 net_3710:3 inst_3779:A2 0.1485
*END

*D_NET TAUNET_3495 1.3760
*CONN
*I inst_7227:QN O
*I TAUGATE_3495:A I
*CAP
1 inst_7227:QN 0.2110
2 TAUNET_3495:1 0.3070
3 TAUNET_3495:2 0.3583
4 TAUNET_3495:3 0.1395
5 TAUNET_3495:4 0.0646
6 TAUNET_3495:5 0.0794
7 TAUGATE_3495:A 0.2161
*RES
2 inst_7227:QN TAUNET_3495:1 0.1614
3 TAUNET_3495:1 TAUNET_3495:2 0.3312
4 TAUNET_3495:2 TAUNET_3495:3 0.3755
5 TAUNET_3495:3 TAUNET_3495:4 0.4644
6 TAUNET_3495:4 TAUNET_3495:5 0.4559
7 TAUNET_3495:5 TAUGATE_3495:A 0.4050
*END

*D_NET net_1543 0.4849
*CONN
*I inst_201:ZN O
*I inst_3986:A3 I
*CAP
1 inst_201:ZN 0.1670
2 net_1543:1 0.2440
3 net_1543:2 0.0332
4 inst_3986:A3 0.0406
*RES
2 inst_201:ZN net_1543:1 0.2732
3 net_1543:1 net_1543:2 0.0073
4 net_1543:2 inst_3986:A3 0.1308
*END

*D_NET net_8142 3.2076
*CONN
*I inst_1606:Q O
*I inst_8085:B1 I
*I inst_1606:D I
*CAP
1 inst_1606:Q 0.2909
2 net_8142:1 0.0740
3 net_8142:2 0.4871
4 net_8142:3 0.4951
5 net_8142:4 0.4125
6 inst_8085:B1 0.0565
7 net_8142:5 0.4708
8 net_8142:6 0.3056
9 net_8142:7 0.3464
10 net_8142:8 0.0305
11 inst_1606:D 0.2383
*RES
2 inst_1606:Q net_8142:1 0.1285
3 net_8142:1 net_8142:2 0.0292
4 net_8142:2 net_8142:3 0.2926
5 net_8142:3 net_8142:4 0.4507
6 net_8142:4 inst_8085:B1 0.3356
7 net_8142:4 net_8142:5 0.4020
8 net_8142:5 net_8142:6 0.2529
9 net_8142:6 net_8142:7 0.2665
10 net_8142:7 net_8142:8 0.4354
11 net_8142:8 inst_1606:D 0.1977
*END

*D_NET net_5476 1.4247
*CONN
*I inst_4205:ZN O
*I inst_3925:A3 I
*CAP
1 inst_4205:ZN 0.3276
2 net_5476:1 0.3292
3 net_5476:2 0.0716
4 net_5476:3 0.2236
5 net_5476:4 0.1922
6 inst_3925:A3 0.2805
*RES
2 inst_4205:ZN net_5476:1 0.1322
3 net_5476:1 net_5476:2 0.1905
4 net_5476:2 net_5476:3 0.4017
5 net_5476:3 net_5476:4 0.4680
6 net_5476:4 inst_3925:A3 0.2976
*END

*D_NET TAUNET_1550 1.4553
*CONN
*I TAUGATE_1229:Z O
*I TAUGATE_1550:A I
*CAP
1 TAUGATE_1229:Z 0.2927
2 TAUNET_1550:1 0.2211
3 TAUNET_1550:2 0.1955
4 TAUNET_1550:3 0.1868
5 TAUNET_1550:4 0.4889
6 TAUGATE_1550:A 0.0703
*RES
2 TAUGATE_1229:Z TAUNET_1550:1 0.3298
3 TAUNET_1550:1 TAUNET_1550:2 0.4131
4 TAUNET_1550:2 TAUNET_1550:3 0.3310
5 TAUNET_1550:3 TAUNET_1550:4 0.2621
6 TAUNET_1550:4 TAUGATE_1550:A 0.4792
*END

*D_NET net_4862 1.1591
*CONN
*I inst_6244:ZN O
*I inst_7425:D I
*CAP
1 inst_6244:ZN 0.0717
2 net_4862:1 0.4035
3 net_4862:2 0.0219
4 net_4862:3 0.0830
5 net_4862:4 0.4539
6 inst_7425:D 0.1250
*RES
2 inst_6244:ZN net_4862:1 0.3196
3 net_4862:1 net_4862:2 0.4976
4 net_4862:2 net_4862:3 0.3591
5 net_4862:3 net_4862:4 0.2780
6 net_4862:4 inst_7425:D 0.2022
*END

*D_NET net_7729 3.7305
*CONN
*I inst_1394:Q O
*I inst_8043:A1 I
*I inst_1394:SI I
*CAP
1 inst_1394:Q 0.4382
2 net_7729:1 0.4055
3 net_7729:2 0.4519
4 net_7729:3 0.4658
5 net_7729:4 0.3690
6 inst_8043:A1 0.4019
7 net_7729:5 0.1782
8 net_7729:6 0.4734
9 net_7729:7 0.0376
10 net_7729:8 0.0972
11 net_7729:9 0.3594
12 inst_1394:SI 0.0525
*RES
2 inst_1394:Q net_7729:1 0.0632
3 net_7729:1 net_7729:2 0.2503
4 net_7729:2 net_7729:3 0.4700
5 net_7729:3 net_7729:4 0.3789
6 net_7729:4 inst_8043:A1 0.3545
7 net_7729:1 net_7729:5 0.3248
8 net_7729:5 net_7729:6 0.2597
9 net_7729:6 net_7729:7 0.1267
10 net_7729:7 net_7729:8 0.3840
11 net_7729:8 net_7729:9 0.2434
12 net_7729:9 inst_1394:SI 0.3726
*END

*D_NET net_5499 1.5909
*CONN
*I TAUGATE_1463:Z O
*I inst_3902:A3 I
*CAP
1 TAUGATE_1463:Z 0.2454
2 net_5499:1 0.1921
3 net_5499:2 0.1376
4 net_5499:3 0.4443
5 net_5499:4 0.1288
6 net_5499:5 0.3022
7 inst_3902:A3 0.1405
*RES
2 TAUGATE_1463:Z net_5499:1 0.0668
3 net_5499:1 net_5499:2 0.3699
4 net_5499:2 net_5499:3 0.4131
5 net_5499:3 net_5499:4 0.4004
6 net_5499:4 net_5499:5 0.4814
7 net_5499:5 inst_3902:A3 0.1341
*END

*D_NET net_3978 37.6613
*CONN
*I inst_5024:ZN O
*I inst_405:SE I
*I inst_414:SE I
*I inst_396:SE I
*I inst_415:SE I
*I inst_401:SE I
*I inst_421:SE I
*I inst_418:SE I
*I inst_422:SE I
*I inst_397:SE I
*I inst_373:SE I
*I inst_364:SE I
*I inst_411:SE I
*I inst_369:SE I
*I inst_419:SE I
*I inst_408:SE I
*I inst_375:SE I
*I inst_420:SE I
*I inst_404:SE I
*I inst_412:SE I
*I inst_400:SE I
*I inst_359:SE I
*I inst_407:SE I
*I inst_416:SE I
*I inst_395:SE I
*I inst_371:SE I
*I inst_366:SE I
*I inst_403:SE I
*I inst_406:SE I
*I inst_399:SE I
*I inst_402:SE I
*I inst_413:SE I
*I inst_410:SE I
*I inst_409:SE I
*I inst_398:SE I
*I inst_363:SE I
*I inst_423:SE I
*I inst_417:SE I
*CAP
1 inst_5024:ZN 0.0282
2 net_3978:1 0.0253
3 net_3978:2 0.3105
4 net_3978:3 0.1881
5 net_3978:4 0.2034
6 inst_399:SE 0.1592
7 net_3978:5 0.3774
8 net_3978:6 0.2731
9 net_3978:7 0.1525
10 net_3978:8 0.0518
11 inst_414:SE 0.2548
12 net_3978:9 0.2239
13 net_3978:10 0.0917
14 inst_396:SE 0.4230
15 net_3978:11 0.4381
16 net_3978:12 0.3484
17 inst_415:SE 0.0801
18 net_3978:13 0.4104
19 inst_401:SE 0.0649
20 net_3978:14 0.1076
21 net_3978:15 0.4606
22 net_3978:16 0.3388
23 net_3978:17 0.4657
24 net_3978:18 0.3595
25 inst_421:SE 0.2471
26 net_3978:19 0.3877
27 net_3978:20 0.3882
28 net_3978:21 0.4950
29 net_3978:22 0.0413
30 net_3978:23 0.4651
31 inst_418:SE 0.4065
32 net_3978:24 0.2195
33 net_3978:25 0.1533
34 net_3978:26 0.4091
35 inst_422:SE 0.2613
36 net_3978:27 0.1210
37 net_3978:28 0.1733
38 net_3978:29 0.1014
39 net_3978:30 0.0283
40 net_3978:31 0.2763
41 inst_397:SE 0.2945
42 net_3978:32 0.3629
43 inst_373:SE 0.2821
44 net_3978:33 0.1079
45 net_3978:34 0.3323
46 net_3978:35 0.2907
47 net_3978:36 0.0362
48 inst_364:SE 0.4966
49 net_3978:37 0.4602
50 inst_411:SE 0.4262
51 net_3978:38 0.2443
52 net_3978:39 0.2458
53 net_3978:40 0.3734
54 net_3978:41 0.1567
55 net_3978:42 0.1247
56 inst_369:SE 0.2439
57 net_3978:43 0.4026
58 inst_419:SE 0.4684
59 net_3978:44 0.4278
60 net_3978:45 0.3875
61 net_3978:46 0.4796
62 inst_408:SE 0.3740
63 net_3978:47 0.4947
64 net_3978:48 0.3666
65 inst_375:SE 0.2854
66 net_3978:49 0.2044
67 net_3978:50 0.1531
68 net_3978:51 0.3886
69 net_3978:52 0.2618
70 inst_420:SE 0.2468
71 net_3978:53 0.4145
72 inst_404:SE 0.1459
73 net_3978:54 0.0212
74 net_3978:55 0.1417
75 inst_412:SE 0.2190
76 net_3978:56 0.0526
77 net_3978:57 0.2388
78 net_3978:58 0.1787
79 inst_400:SE 0.3603
80 net_3978:59 0.4935
81 inst_359:SE 0.2412
82 net_3978:60 0.0266
83 inst_407:SE 0.0274
84 net_3978:61 0.0145
85 net_3978:62 0.0725
86 net_3978:63 0.4492
87 net_3978:64 0.3124
88 inst_416:SE 0.3685
89 net_3978:65 0.3675
90 net_3978:66 0.4634
91 inst_395:SE 0.2869
92 net_3978:67 0.2376
93 net_3978:68 0.1146
94 net_3978:69 0.3081
95 net_3978:70 0.1439
96 net_3978:71 0.0264
97 inst_371:SE 0.2502
98 net_3978:72 0.1704
99 net_3978:73 0.2303
100 net_3978:74 0.0121
101 inst_366:SE 0.0620
102 net_3978:75 0.4751
103 net_3978:76 0.3195
104 net_3978:77 0.4748
105 net_3978:78 0.2505
106 inst_403:SE 0.2036
107 net_3978:79 0.2723
108 net_3978:80 0.2079
109 net_3978:81 0.2449
110 inst_406:SE 0.0406
111 net_3978:82 0.1553
112 net_3978:83 0.0937
113 inst_405:SE 0.2944
114 net_3978:84 0.3672
115 net_3978:85 0.4629
116 net_3978:86 0.1157
117 net_3978:87 0.1901
118 net_3978:88 0.2138
119 inst_402:SE 0.5008
120 net_3978:89 0.3144
121 net_3978:90 0.4503
122 net_3978:91 0.3676
123 net_3978:92 0.1603
124 inst_413:SE 0.4423
125 net_3978:93 0.1546
126 inst_410:SE 0.1861
127 net_3978:94 0.0111
128 net_3978:95 0.1222
129 inst_409:SE 0.0613
130 net_3978:96 0.2603
131 net_3978:97 0.2874
132 net_3978:98 0.3072
133 inst_398:SE 0.2768
134 net_3978:99 0.2138
135 net_3978:100 0.4796
136 net_3978:101 0.3806
137 inst_363:SE 0.4946
138 net_3978:102 0.1750
139 net_3978:103 0.4103
140 net_3978:104 0.0845
141 inst_423:SE 0.1888
142 net_3978:105 0.0491
143 net_3978:106 0.4137
144 net_3978:107 0.3046
145 inst_417:SE 0.2987
*RES
2 inst_5024:ZN net_3978:1 0.3147
3 net_3978:1 net_3978:2 0.2761
4 net_3978:2 net_3978:3 0.3643
5 net_3978:3 net_3978:4 0.2288
6 net_3978:4 inst_399:SE 0.0666
7 net_3978:4 net_3978:5 0.2154
8 net_3978:5 net_3978:6 0.4921
9 net_3978:6 net_3978:7 0.1648
10 net_3978:7 net_3978:8 0.1855
11 net_3978:8 inst_414:SE 0.0112
12 net_3978:6 net_3978:9 0.1494
13 net_3978:9 net_3978:10 0.3290
14 net_3978:10 inst_396:SE 0.1620
15 net_3978:7 net_3978:11 0.1392
16 net_3978:11 net_3978:12 0.1891
17 net_3978:12 inst_415:SE 0.0464
18 net_3978:1 net_3978:13 0.0510
19 net_3978:13 inst_401:SE 0.1600
20 net_3978:5 net_3978:14 0.0832
21 net_3978:14 net_3978:15 0.0580
22 net_3978:15 net_3978:16 0.3736
23 net_3978:16 net_3978:17 0.0395
24 net_3978:17 net_3978:18 0.3644
25 net_3978:18 inst_421:SE 0.0829
26 net_3978:8 net_3978:19 0.3164
27 net_3978:19 net_3978:20 0.3513
28 net_3978:20 net_3978:21 0.1165
29 net_3978:21 net_3978:22 0.0986
30 net_3978:22 net_3978:23 0.2243
31 net_3978:23 inst_418:SE 0.1286
32 net_3978:20 net_3978:24 0.3587
33 net_3978:24 net_3978:25 0.1869
34 net_3978:25 net_3978:26 0.4974
35 net_3978:26 inst_422:SE 0.3047
36 net_3978:7 net_3978:27 0.3177
37 net_3978:27 net_3978:28 0.2101
38 net_3978:28 net_3978:29 0.3390
39 net_3978:29 net_3978:30 0.2046
40 net_3978:30 net_3978:31 0.3404
41 net_3978:31 inst_397:SE 0.1317
42 net_3978:23 net_3978:32 0.3900
43 net_3978:32 inst_373:SE 0.0557
44 net_3978:18 net_3978:33 0.4101
45 net_3978:33 net_3978:34 0.2702
46 net_3978:34 net_3978:35 0.2135
47 net_3978:35 net_3978:36 0.0419
48 net_3978:36 inst_364:SE 0.2773
49 net_3978:7 net_3978:37 0.2009
50 net_3978:37 inst_411:SE 0.3114
51 net_3978:31 net_3978:38 0.2588
52 net_3978:38 net_3978:39 0.4474
53 net_3978:39 net_3978:40 0.3528
54 net_3978:40 net_3978:41 0.0472
55 net_3978:41 net_3978:42 0.4436
56 net_3978:42 inst_369:SE 0.1981
57 net_3978:28 net_3978:43 0.2490
58 net_3978:43 inst_419:SE 0.0579
59 net_3978:4 net_3978:44 0.1554
60 net_3978:44 net_3978:45 0.0209
61 net_3978:45 net_3978:46 0.4380
62 net_3978:46 inst_408:SE 0.4130
63 net_3978:20 net_3978:47 0.4464
64 net_3978:47 net_3978:48 0.2438
65 net_3978:48 inst_375:SE 0.2969
66 net_3978:23 net_3978:49 0.4002
67 net_3978:49 net_3978:50 0.3652
68 net_3978:50 net_3978:51 0.1857
69 net_3978:51 net_3978:52 0.0562
70 net_3978:52 inst_420:SE 0.0882
71 net_3978:29 net_3978:53 0.1130
72 net_3978:53 inst_404:SE 0.1026
73 net_3978:21 net_3978:54 0.4826
74 net_3978:54 net_3978:55 0.1138
75 net_3978:55 inst_412:SE 0.4033
76 net_3978:42 net_3978:56 0.0603
77 net_3978:56 net_3978:57 0.0863
78 net_3978:57 net_3978:58 0.3102
79 net_3978:58 inst_400:SE 0.1239
80 net_3978:30 net_3978:59 0.3995
81 net_3978:59 inst_359:SE 0.4441
82 net_3978:52 net_3978:60 0.4218
83 net_3978:60 inst_407:SE 0.2061
84 net_3978:56 net_3978:61 0.4317
85 net_3978:61 net_3978:62 0.1801
86 net_3978:62 net_3978:63 0.2826
87 net_3978:63 net_3978:64 0.3420
88 net_3978:64 inst_416:SE 0.0965
89 net_3978:34 net_3978:65 0.1646
90 net_3978:65 net_3978:66 0.1182
91 net_3978:66 inst_395:SE 0.0327
92 net_3978:51 net_3978:67 0.2506
93 net_3978:67 net_3978:68 0.4486
94 net_3978:68 net_3978:69 0.0641
95 net_3978:69 net_3978:70 0.0138
96 net_3978:70 net_3978:71 0.0079
97 net_3978:71 inst_371:SE 0.0204
98 net_3978:14 net_3978:72 0.0267
99 net_3978:72 net_3978:73 0.1278
100 net_3978:73 net_3978:74 0.1079
101 net_3978:74 inst_366:SE 0.3621
102 net_3978:19 net_3978:75 0.3990
103 net_3978:75 net_3978:76 0.0185
104 net_3978:76 net_3978:77 0.3777
105 net_3978:77 net_3978:78 0.2437
106 net_3978:78 inst_403:SE 0.3641
107 net_3978:23 net_3978:79 0.0917
108 net_3978:79 net_3978:80 0.0078
109 net_3978:80 net_3978:81 0.0227
110 net_3978:81 inst_406:SE 0.0264
111 net_3978:3 net_3978:82 0.3987
112 net_3978:82 net_3978:83 0.0209
113 net_3978:83 inst_405:SE 0.1182
114 net_3978:18 net_3978:84 0.2979
115 net_3978:84 net_3978:85 0.3428
116 net_3978:85 net_3978:86 0.2325
117 net_3978:86 net_3978:87 0.2733
118 net_3978:87 net_3978:88 0.1266
119 net_3978:88 inst_402:SE 0.3814
120 net_3978:25 net_3978:89 0.1159
121 net_3978:89 net_3978:90 0.4527
122 net_3978:90 net_3978:91 0.1465
123 net_3978:91 net_3978:92 0.1463
124 net_3978:92 inst_413:SE 0.4621
125 net_3978:75 net_3978:93 0.4367
126 net_3978:93 inst_410:SE 0.3452
127 net_3978:6 net_3978:94 0.1692
128 net_3978:94 net_3978:95 0.4407
129 net_3978:95 inst_409:SE 0.4978
130 net_3978:49 net_3978:96 0.1679
131 net_3978:96 net_3978:97 0.2053
132 net_3978:97 net_3978:98 0.2140
133 net_3978:98 inst_398:SE 0.3306
134 net_3978:32 net_3978:99 0.4608
135 net_3978:99 net_3978:100 0.4692
136 net_3978:100 net_3978:101 0.4766
137 net_3978:101 inst_363:SE 0.0589
138 net_3978:20 net_3978:102 0.1436
139 net_3978:102 net_3978:103 0.1762
140 net_3978:103 net_3978:104 0.4748
141 net_3978:104 inst_423:SE 0.0806
142 net_3978:9 net_3978:105 0.2640
143 net_3978:105 net_3978:106 0.1831
144 net_3978:106 net_3978:107 0.4110
145 net_3978:107 inst_417:SE 0.0191
*END

*D_NET net_2542 33.7091
*CONN
*I inst_9101:ZN O
*I inst_1538:SE I
*I inst_1708:SE I
*I inst_1547:SE I
*I inst_1555:SE I
*I inst_1719:SE I
*I inst_1543:SE I
*I inst_1552:SE I
*I inst_1732:SE I
*I inst_1725:SE I
*I inst_1553:SE I
*I inst_1556:SE I
*I inst_1729:SE I
*I inst_1537:SE I
*I inst_1546:SE I
*I inst_1716:SE I
*I inst_1554:SE I
*I inst_1542:SE I
*I inst_1730:SE I
*I inst_1549:SE I
*I inst_1550:SE I
*I inst_1713:SE I
*I inst_1720:SE I
*I inst_1717:SE I
*I inst_1536:SE I
*I inst_1545:SE I
*I inst_1727:SE I
*I inst_1548:SE I
*I inst_1541:SE I
*I inst_1535:SE I
*I inst_1544:SE I
*I inst_1726:SE I
*I inst_1539:SE I
*I inst_1540:SE I
*I inst_1551:SE I
*CAP
1 inst_9101:ZN 0.4300
2 net_2542:1 0.0787
3 net_2542:2 0.2007
4 net_2542:3 0.2971
5 net_2542:4 0.4025
6 inst_1536:SE 0.5010
7 net_2542:5 0.3761
8 net_2542:6 0.0616
9 net_2542:7 0.4298
10 inst_1708:SE 0.2857
11 net_2542:8 0.1284
12 net_2542:9 0.0036
13 net_2542:10 0.1731
14 net_2542:11 0.2737
15 net_2542:12 0.3095
16 inst_1547:SE 0.4895
17 net_2542:13 0.4915
18 net_2542:14 0.0683
19 inst_1555:SE 0.2135
20 net_2542:15 0.1477
21 inst_1719:SE 0.4806
22 net_2542:16 0.3290
23 net_2542:17 0.1592
24 net_2542:18 0.4236
25 inst_1543:SE 0.3328
26 net_2542:19 0.4963
27 inst_1552:SE 0.2377
28 net_2542:20 0.3400
29 net_2542:21 0.2352
30 net_2542:22 0.3112
31 net_2542:23 0.1345
32 inst_1732:SE 0.4134
33 net_2542:24 0.2112
34 net_2542:25 0.2343
35 inst_1725:SE 0.1106
36 net_2542:26 0.1702
37 net_2542:27 0.0535
38 inst_1553:SE 0.0383
39 net_2542:28 0.2308
40 net_2542:29 0.1825
41 net_2542:30 0.4154
42 net_2542:31 0.4205
43 inst_1556:SE 0.1921
44 net_2542:32 0.3586
45 inst_1729:SE 0.1804
46 net_2542:33 0.2910
47 inst_1537:SE 0.3418
48 net_2542:34 0.4916
49 net_2542:35 0.0258
50 net_2542:36 0.0722
51 net_2542:37 0.0268
52 inst_1546:SE 0.0274
53 net_2542:38 0.1555
54 inst_1716:SE 0.4347
55 net_2542:39 0.0755
56 net_2542:40 0.3163
57 inst_1554:SE 0.3515
58 net_2542:41 0.3389
59 net_2542:42 0.4000
60 net_2542:43 0.0188
61 net_2542:44 0.4709
62 inst_1542:SE 0.4204
63 net_2542:45 0.0970
64 net_2542:46 0.2798
65 net_2542:47 0.3150
66 inst_1730:SE 0.0137
67 net_2542:48 0.4010
68 inst_1549:SE 0.2910
69 net_2542:49 0.3715
70 net_2542:50 0.3144
71 net_2542:51 0.3618
72 net_2542:52 0.0820
73 inst_1550:SE 0.2174
74 net_2542:53 0.1396
75 net_2542:54 0.0910
76 net_2542:55 0.1278
77 net_2542:56 0.3093
78 net_2542:57 0.3342
79 inst_1713:SE 0.2150
80 net_2542:58 0.0546
81 inst_1720:SE 0.0043
82 net_2542:59 0.1466
83 net_2542:60 0.2784
84 net_2542:61 0.2008
85 inst_1717:SE 0.3776
86 net_2542:62 0.3567
87 net_2542:63 0.3242
88 net_2542:64 0.2336
89 net_2542:65 0.3863
90 inst_1538:SE 0.2365
91 net_2542:66 0.4791
92 net_2542:67 0.2417
93 inst_1545:SE 0.2444
94 net_2542:68 0.4053
95 net_2542:69 0.0863
96 net_2542:70 0.2362
97 net_2542:71 0.1365
98 inst_1727:SE 0.0277
99 net_2542:72 0.4376
100 inst_1548:SE 0.1423
101 net_2542:73 0.4832
102 net_2542:74 0.2776
103 net_2542:75 0.3781
104 net_2542:76 0.3766
105 net_2542:77 0.0185
106 inst_1541:SE 0.3877
107 net_2542:78 0.4372
108 net_2542:79 0.1158
109 net_2542:80 0.1153
110 inst_1535:SE 0.3810
111 net_2542:81 0.2343
112 net_2542:82 0.0981
113 net_2542:83 0.3461
114 net_2542:84 0.2382
115 net_2542:85 0.4109
116 inst_1544:SE 0.0945
117 net_2542:86 0.4527
118 inst_1726:SE 0.3131
119 net_2542:87 0.2266
120 net_2542:88 0.4199
121 net_2542:89 0.3736
122 net_2542:90 0.3306
123 inst_1539:SE 0.3042
124 net_2542:91 0.0262
125 inst_1540:SE 0.3812
126 net_2542:92 0.3805
127 net_2542:93 0.2523
128 net_2542:94 0.0497
129 inst_1551:SE 0.4938
*RES
2 inst_9101:ZN net_2542:1 0.3538
3 net_2542:1 net_2542:2 0.4649
4 net_2542:2 net_2542:3 0.0482
5 net_2542:3 net_2542:4 0.1062
6 net_2542:4 inst_1536:SE 0.2963
7 net_2542:2 net_2542:5 0.2634
8 net_2542:5 net_2542:6 0.0470
9 net_2542:6 net_2542:7 0.0745
10 net_2542:7 inst_1708:SE 0.1738
11 net_2542:7 net_2542:8 0.4033
12 net_2542:8 net_2542:9 0.2734
13 net_2542:9 net_2542:10 0.3461
14 net_2542:10 net_2542:11 0.3729
15 net_2542:11 net_2542:12 0.0418
16 net_2542:12 inst_1547:SE 0.3671
17 net_2542:10 net_2542:13 0.4484
18 net_2542:13 net_2542:14 0.1379
19 net_2542:14 inst_1555:SE 0.1139
20 net_2542:1 net_2542:15 0.3473
21 net_2542:15 inst_1719:SE 0.1114
22 net_2542:4 net_2542:16 0.1906
23 net_2542:16 net_2542:17 0.5003
24 net_2542:17 net_2542:18 0.4347
25 net_2542:18 inst_1543:SE 0.3044
26 net_2542:5 net_2542:19 0.2571
27 net_2542:19 inst_1552:SE 0.3610
28 net_2542:12 net_2542:20 0.0741
29 net_2542:20 net_2542:21 0.4290
30 net_2542:21 net_2542:22 0.4891
31 net_2542:22 net_2542:23 0.0621
32 net_2542:23 inst_1732:SE 0.2122
33 net_2542:10 net_2542:24 0.0283
34 net_2542:24 net_2542:25 0.2644
35 net_2542:25 inst_1725:SE 0.3395
36 net_2542:22 net_2542:26 0.2939
37 net_2542:26 net_2542:27 0.2177
38 net_2542:27 inst_1553:SE 0.0520
39 net_2542:11 net_2542:28 0.3303
40 net_2542:28 net_2542:29 0.0500
41 net_2542:29 net_2542:30 0.3450
42 net_2542:30 net_2542:31 0.2552
43 net_2542:31 inst_1556:SE 0.2397
44 net_2542:25 net_2542:32 0.2132
45 net_2542:32 inst_1729:SE 0.3448
46 net_2542:17 net_2542:33 0.0277
47 net_2542:33 inst_1537:SE 0.2232
48 net_2542:5 net_2542:34 0.0955
49 net_2542:34 net_2542:35 0.0758
50 net_2542:35 net_2542:36 0.0730
51 net_2542:36 net_2542:37 0.2996
52 net_2542:37 inst_1546:SE 0.1500
53 net_2542:21 net_2542:38 0.2976
54 net_2542:38 inst_1716:SE 0.3531
55 net_2542:3 net_2542:39 0.2983
56 net_2542:39 net_2542:40 0.4269
57 net_2542:40 inst_1554:SE 0.0493
58 net_2542:3 net_2542:41 0.0122
59 net_2542:41 net_2542:42 0.2688
60 net_2542:42 net_2542:43 0.0936
61 net_2542:43 net_2542:44 0.3051
62 net_2542:44 inst_1542:SE 0.1197
63 net_2542:27 net_2542:45 0.2108
64 net_2542:45 net_2542:46 0.3101
65 net_2542:46 net_2542:47 0.0161
66 net_2542:47 inst_1730:SE 0.2047
67 net_2542:36 net_2542:48 0.3768
68 net_2542:48 inst_1549:SE 0.3083
69 net_2542:13 net_2542:49 0.3638
70 net_2542:49 net_2542:50 0.4097
71 net_2542:50 net_2542:51 0.2418
72 net_2542:51 net_2542:52 0.4080
73 net_2542:52 inst_1550:SE 0.3118
74 net_2542:33 net_2542:53 0.0109
75 net_2542:53 net_2542:54 0.1830
76 net_2542:54 net_2542:55 0.2298
77 net_2542:55 net_2542:56 0.0712
78 net_2542:56 net_2542:57 0.0044
79 net_2542:57 inst_1713:SE 0.1986
80 net_2542:6 net_2542:58 0.2737
81 net_2542:58 inst_1720:SE 0.4724
82 net_2542:32 net_2542:59 0.2937
83 net_2542:59 net_2542:60 0.0093
84 net_2542:60 net_2542:61 0.2822
85 net_2542:61 inst_1717:SE 0.4311
86 net_2542:15 net_2542:62 0.1037
87 net_2542:62 net_2542:63 0.3572
88 net_2542:63 net_2542:64 0.2211
89 net_2542:64 net_2542:65 0.2185
90 net_2542:65 inst_1538:SE 0.2266
91 net_2542:33 net_2542:66 0.4262
92 net_2542:66 net_2542:67 0.3737
93 net_2542:67 inst_1545:SE 0.3015
94 net_2542:25 net_2542:68 0.4263
95 net_2542:68 net_2542:69 0.2912
96 net_2542:69 net_2542:70 0.1111
97 net_2542:70 net_2542:71 0.3711
98 net_2542:71 inst_1727:SE 0.0512
99 net_2542:15 net_2542:72 0.1283
100 net_2542:72 inst_1548:SE 0.1146
101 net_2542:47 net_2542:73 0.1588
102 net_2542:73 net_2542:74 0.3738
103 net_2542:74 net_2542:75 0.4556
104 net_2542:75 net_2542:76 0.1835
105 net_2542:76 net_2542:77 0.0020
106 net_2542:77 inst_1541:SE 0.2614
107 net_2542:46 net_2542:78 0.1100
108 net_2542:78 net_2542:79 0.1662
109 net_2542:79 net_2542:80 0.3178
110 net_2542:80 inst_1535:SE 0.2541
111 net_2542:39 net_2542:81 0.2326
112 net_2542:81 net_2542:82 0.0121
113 net_2542:82 net_2542:83 0.2674
114 net_2542:83 net_2542:84 0.2072
115 net_2542:84 net_2542:85 0.0414
116 net_2542:85 inst_1544:SE 0.2455
117 net_2542:33 net_2542:86 0.4392
118 net_2542:86 inst_1726:SE 0.4048
119 net_2542:7 net_2542:87 0.1317
120 net_2542:87 net_2542:88 0.1481
121 net_2542:88 net_2542:89 0.2485
122 net_2542:89 net_2542:90 0.2201
123 net_2542:90 inst_1539:SE 0.2966
124 net_2542:53 net_2542:91 0.0656
125 net_2542:91 inst_1540:SE 0.1550
126 net_2542:26 net_2542:92 0.3913
127 net_2542:92 net_2542:93 0.2131
128 net_2542:93 net_2542:94 0.3201
129 net_2542:94 inst_1551:SE 0.0320
*END

*D_NET net_1601 2.1105
*CONN
*I inst_4781:ZN O
*I inst_2918:A1 I
*CAP
1 inst_4781:ZN 0.3378
2 net_1601:1 0.2454
3 net_1601:2 0.4527
4 net_1601:3 0.2663
5 net_1601:4 0.3641
6 net_1601:5 0.1740
7 inst_2918:A1 0.2701
*RES
2 inst_4781:ZN net_1601:1 0.3351
3 net_1601:1 net_1601:2 0.4105
4 net_1601:2 net_1601:3 0.3004
5 net_1601:3 net_1601:4 0.3665
6 net_1601:4 net_1601:5 0.1341
7 net_1601:5 inst_2918:A1 0.0859
*END

*D_NET net_210 0.5333
*CONN
*I inst_7219:QN O
*I inst_6572:A I
*CAP
1 inst_7219:QN 0.3812
2 net_210:1 0.1227
3 inst_6572:A 0.0294
*RES
2 inst_7219:QN net_210:1 0.0059
3 net_210:1 inst_6572:A 0.3552
*END

*D_NET net_1224 2.1906
*CONN
*I inst_28:Z O
*I inst_3309:A1 I
*CAP
1 inst_28:Z 0.1840
2 net_1224:1 0.3573
3 net_1224:2 0.4559
4 net_1224:3 0.3575
5 net_1224:4 0.1715
6 net_1224:5 0.3050
7 inst_3309:A1 0.3594
*RES
2 inst_28:Z net_1224:1 0.4902
3 net_1224:1 net_1224:2 0.4716
4 net_1224:2 net_1224:3 0.2112
5 net_1224:3 net_1224:4 0.1762
6 net_1224:4 net_1224:5 0.1166
7 net_1224:5 inst_3309:A1 0.1660
*END

*D_NET net_4752 1.7572
*CONN
*I inst_7812:ZN O
*I inst_6248:A I
*CAP
1 inst_7812:ZN 0.2908
2 net_4752:1 0.3308
3 net_4752:2 0.4080
4 net_4752:3 0.4669
5 net_4752:4 0.1932
6 inst_6248:A 0.0675
*RES
2 inst_7812:ZN net_4752:1 0.0053
3 net_4752:1 net_4752:2 0.1459
4 net_4752:2 net_4752:3 0.0437
5 net_4752:3 net_4752:4 0.4598
6 net_4752:4 inst_6248:A 0.3838
*END

*D_NET net_5150 2.5348
*CONN
*I inst_4307:ZN O
*I inst_4105:A1 I
*CAP
1 inst_4307:ZN 0.3263
2 net_5150:1 0.4683
3 net_5150:2 0.1543
4 net_5150:3 0.4873
5 net_5150:4 0.1669
6 net_5150:5 0.4800
7 inst_4105:A1 0.4518
*RES
2 inst_4307:ZN net_5150:1 0.0570
3 net_5150:1 net_5150:2 0.4909
4 net_5150:2 net_5150:3 0.0572
5 net_5150:3 net_5150:4 0.5008
6 net_5150:4 net_5150:5 0.1013
7 net_5150:5 inst_4105:A1 0.2457
*END

*D_NET net_8898 4.0516
*CONN
*I inst_7073:QN O
*I inst_5974:A I
*I inst_3414:A1 I
*CAP
1 inst_7073:QN 0.2594
2 net_8898:1 0.4074
3 net_8898:2 0.4309
4 net_8898:3 0.4474
5 net_8898:4 0.2931
6 inst_3414:A1 0.2848
7 net_8898:5 0.4663
8 net_8898:6 0.2866
9 net_8898:7 0.1873
10 net_8898:8 0.1599
11 net_8898:9 0.3589
12 inst_5974:A 0.4697
*RES
2 inst_7073:QN net_8898:1 0.2246
3 net_8898:1 net_8898:2 0.3320
4 net_8898:2 net_8898:3 0.3870
5 net_8898:3 net_8898:4 0.3663
6 net_8898:4 inst_3414:A1 0.1512
7 net_8898:1 net_8898:5 0.4844
8 net_8898:5 net_8898:6 0.0401
9 net_8898:6 net_8898:7 0.2861
10 net_8898:7 net_8898:8 0.1883
11 net_8898:8 net_8898:9 0.3075
12 net_8898:9 inst_5974:A 0.0604
*END

*D_NET net_8119 3.4604
*CONN
*I inst_1612:Q O
*I inst_1612:D I
*I inst_8143:B1 I
*CAP
1 inst_1612:Q 0.2921
2 net_8119:1 0.1285
3 net_8119:2 0.0491
4 net_8119:3 0.3511
5 net_8119:4 0.2111
6 net_8119:5 0.3010
7 inst_8143:B1 0.1515
8 net_8119:6 0.3648
9 net_8119:7 0.4404
10 net_8119:8 0.3187
11 net_8119:9 0.4272
12 net_8119:10 0.0224
13 inst_1612:D 0.4026
*RES
2 inst_1612:Q net_8119:1 0.0492
3 net_8119:1 net_8119:2 0.2707
4 net_8119:2 net_8119:3 0.0711
5 net_8119:3 net_8119:4 0.2365
6 net_8119:4 net_8119:5 0.0021
7 net_8119:5 inst_8143:B1 0.2080
8 net_8119:4 net_8119:6 0.2784
9 net_8119:6 net_8119:7 0.1803
10 net_8119:7 net_8119:8 0.0882
11 net_8119:8 net_8119:9 0.2924
12 net_8119:9 net_8119:10 0.4780
13 net_8119:10 inst_1612:D 0.3510
*END

*D_NET TAUNET_3432 5.4099
*CONN
*I inst_4661:ZN O
*I TAUGATE_3432:A I
*I inst_3468:A2 I
*I inst_8:A I
*I inst_3223:A4 I
*CAP
1 inst_4661:ZN 0.2614
2 TAUNET_3432:1 0.2582
3 TAUNET_3432:2 0.4484
4 TAUGATE_3432:A 0.0762
5 TAUNET_3432:3 0.4671
6 TAUNET_3432:4 0.2972
7 TAUNET_3432:5 0.3936
8 TAUNET_3432:6 0.4880
9 TAUNET_3432:7 0.4169
10 inst_3468:A2 0.3167
11 TAUNET_3432:8 0.0048
12 TAUNET_3432:9 0.3126
13 inst_8:A 0.0195
14 TAUNET_3432:10 0.4038
15 TAUNET_3432:11 0.1954
16 TAUNET_3432:12 0.0063
17 TAUNET_3432:13 0.4904
18 TAUNET_3432:14 0.0915
19 inst_3223:A4 0.4619
*RES
2 inst_4661:ZN TAUNET_3432:1 0.1986
3 TAUNET_3432:1 TAUNET_3432:2 0.3922
4 TAUNET_3432:2 TAUGATE_3432:A 0.3950
5 TAUNET_3432:2 TAUNET_3432:3 0.3376
6 TAUNET_3432:3 TAUNET_3432:4 0.1073
7 TAUNET_3432:4 TAUNET_3432:5 0.3579
8 TAUNET_3432:5 TAUNET_3432:6 0.1300
9 TAUNET_3432:6 TAUNET_3432:7 0.3795
10 TAUNET_3432:7 inst_3468:A2 0.2362
11 TAUNET_3432:5 TAUNET_3432:8 0.0541
12 TAUNET_3432:8 TAUNET_3432:9 0.3700
13 TAUNET_3432:9 inst_8:A 0.3260
14 TAUNET_3432:7 TAUNET_3432:10 0.1065
15 TAUNET_3432:10 TAUNET_3432:11 0.1990
16 TAUNET_3432:11 TAUNET_3432:12 0.2576
17 TAUNET_3432:12 TAUNET_3432:13 0.0690
18 TAUNET_3432:13 TAUNET_3432:14 0.2231
19 TAUNET_3432:14 inst_3223:A4 0.2934
*END

*D_NET TAUNET_937 2.1019
*CONN
*I inst_6590:ZN O
*I TAUGATE_937:A I
*I inst_3973:A2 I
*CAP
1 inst_6590:ZN 0.0281
2 TAUNET_937:1 0.2539
3 TAUNET_937:2 0.0765
4 TAUGATE_937:A 0.1980
5 TAUNET_937:3 0.4631
6 TAUNET_937:4 0.0407
7 TAUNET_937:5 0.4130
8 TAUNET_937:6 0.3462
9 TAUNET_937:7 0.0714
10 inst_3973:A2 0.2110
*RES
2 inst_6590:ZN TAUNET_937:1 0.3226
3 TAUNET_937:1 TAUNET_937:2 0.1282
4 TAUNET_937:2 TAUGATE_937:A 0.2766
5 TAUNET_937:2 TAUNET_937:3 0.2588
6 TAUNET_937:3 TAUNET_937:4 0.0339
7 TAUNET_937:4 TAUNET_937:5 0.0519
8 TAUNET_937:5 TAUNET_937:6 0.4874
9 TAUNET_937:6 TAUNET_937:7 0.0374
10 TAUNET_937:7 inst_3973:A2 0.2489
*END

*D_NET net_6570 1.7515
*CONN
*I inst_1190:Q O
*I inst_1190:SI I
*I inst_8451:A1 I
*CAP
1 inst_1190:Q 0.0346
2 net_6570:1 0.0645
3 net_6570:2 0.3416
4 net_6570:3 0.4099
5 net_6570:4 0.1540
6 net_6570:5 0.0325
7 inst_8451:A1 0.0924
8 net_6570:6 0.2001
9 inst_1190:SI 0.4220
*RES
2 inst_1190:Q net_6570:1 0.1850
3 net_6570:1 net_6570:2 0.1516
4 net_6570:2 net_6570:3 0.2746
5 net_6570:3 net_6570:4 0.4228
6 net_6570:4 net_6570:5 0.1417
7 net_6570:5 inst_8451:A1 0.3754
8 net_6570:2 net_6570:6 0.4926
9 net_6570:6 inst_1190:SI 0.0580
*END

*D_NET net_4574 1.2630
*CONN
*I inst_7867:ZN O
*I inst_3635:A3 I
*CAP
1 inst_7867:ZN 0.2195
2 net_4574:1 0.2030
3 net_4574:2 0.2656
4 net_4574:3 0.4413
5 inst_3635:A3 0.1336
*RES
2 inst_7867:ZN net_4574:1 0.4042
3 net_4574:1 net_4574:2 0.0451
4 net_4574:2 net_4574:3 0.2391
5 net_4574:3 inst_3635:A3 0.0321
*END

*D_NET net_3348 1.0327
*CONN
*I TAUGATE_2397:Z O
*I inst_7099:D I
*CAP
1 TAUGATE_2397:Z 0.0857
2 net_3348:1 0.2245
3 net_3348:2 0.4797
4 net_3348:3 0.0551
5 inst_7099:D 0.1877
*RES
2 TAUGATE_2397:Z net_3348:1 0.0973
3 net_3348:1 net_3348:2 0.4235
4 net_3348:2 net_3348:3 0.1903
5 net_3348:3 inst_7099:D 0.2143
*END

*D_NET net_8998 2.5084
*CONN
*I inst_2494:Q O
*I inst_2494:D I
*I inst_8742:C1 I
*CAP
1 inst_2494:Q 0.2421
2 net_8998:1 0.2497
3 net_8998:2 0.2766
4 net_8998:3 0.3086
5 net_8998:4 0.2353
6 net_8998:5 0.4838
7 inst_2494:D 0.0722
8 net_8998:6 0.0224
9 net_8998:7 0.3933
10 inst_8742:C1 0.2244
*RES
2 inst_2494:Q net_8998:1 0.3539
3 net_8998:1 net_8998:2 0.3446
4 net_8998:2 net_8998:3 0.0192
5 net_8998:3 net_8998:4 0.1341
6 net_8998:4 net_8998:5 0.4054
7 net_8998:5 inst_2494:D 0.3681
8 net_8998:2 net_8998:6 0.4154
9 net_8998:6 net_8998:7 0.1374
10 net_8998:7 inst_8742:C1 0.1713
*END

*D_NET net_7862 2.7433
*CONN
*I inst_1503:Q O
*I inst_8023:A1 I
*I inst_1503:SI I
*CAP
1 inst_1503:Q 0.3119
2 net_7862:1 0.3583
3 net_7862:2 0.0251
4 net_7862:3 0.0071
5 net_7862:4 0.2242
6 net_7862:5 0.4834
7 inst_8023:A1 0.4589
8 net_7862:6 0.4409
9 inst_1503:SI 0.4335
*RES
2 inst_1503:Q net_7862:1 0.0098
3 net_7862:1 net_7862:2 0.3264
4 net_7862:2 net_7862:3 0.2846
5 net_7862:3 net_7862:4 0.4721
6 net_7862:4 net_7862:5 0.1185
7 net_7862:5 inst_8023:A1 0.4585
8 net_7862:5 net_7862:6 0.3158
9 net_7862:6 inst_1503:SI 0.2513
*END

*D_NET net_940 1.1989
*CONN
*I inst_321:ZN O
*I inst_110:B I
*CAP
1 inst_321:ZN 0.1640
2 net_940:1 0.3155
3 net_940:2 0.4909
4 inst_110:B 0.2285
*RES
2 inst_321:ZN net_940:1 0.2293
3 net_940:1 net_940:2 0.4514
4 net_940:2 inst_110:B 0.1489
*END

*D_NET net_2563 1.3305
*CONN
*I inst_6699:CO O
*I inst_6692:B I
*CAP
1 inst_6699:CO 0.1815
2 net_2563:1 0.3238
3 net_2563:2 0.1536
4 net_2563:3 0.2744
5 inst_6692:B 0.3973
*RES
2 inst_6699:CO net_2563:1 0.0682
3 net_2563:1 net_2563:2 0.0813
4 net_2563:2 net_2563:3 0.2235
5 net_2563:3 inst_6692:B 0.0018
*END

*D_NET net_955 3.4668
*CONN
*I inst_6005:ZN O
*I inst_3171:B2 I
*I inst_4851:A2 I
*I inst_312:B I
*CAP
1 inst_6005:ZN 0.4580
2 net_955:1 0.4660
3 net_955:2 0.3296
4 net_955:3 0.2711
5 net_955:4 0.1177
6 net_955:5 0.1130
7 inst_4851:A2 0.0719
8 net_955:6 0.4330
9 net_955:7 0.3792
10 inst_3171:B2 0.3945
11 net_955:8 0.3986
12 inst_312:B 0.0342
*RES
2 inst_6005:ZN net_955:1 0.2913
3 net_955:1 net_955:2 0.3837
4 net_955:2 net_955:3 0.4308
5 net_955:3 net_955:4 0.4593
6 net_955:4 net_955:5 0.4578
7 net_955:5 inst_4851:A2 0.1666
8 net_955:5 net_955:6 0.1168
9 net_955:6 net_955:7 0.0632
10 net_955:7 inst_3171:B2 0.3389
11 net_955:4 net_955:8 0.1492
12 net_955:8 inst_312:B 0.1342
*END

*D_NET net_3385 0.8045
*CONN
*I inst_8674:ZN O
*I inst_3042:A I
*CAP
1 inst_8674:ZN 0.4466
2 net_3385:1 0.1418
3 inst_3042:A 0.2162
*RES
2 inst_8674:ZN net_3385:1 0.3480
3 net_3385:1 inst_3042:A 0.3423
*END

*D_NET net_5736 0.9221
*CONN
*I inst_6191:ZN O
*I inst_6912:D I
*CAP
1 inst_6191:ZN 0.3077